15
Energy =
C    -6.9420581    2.9457119   -0.0260621 
C    -5.5614390    2.3151732    0.0849050 
H    -7.0175765    3.5669135   -0.9417792 
H    -7.1610595    3.5707760    0.8628383 
H    -7.7025552    2.1392484   -0.0870339 
C    -4.4314524    3.3434025   -0.0072075 
O    -5.4140473    1.3815524   -0.9682297 
H    -5.4822054    1.7610213    1.0576825 
C    -4.3202752    4.2240781    1.2509707 
H    -4.5704208    3.9747059   -0.9133869 
H    -3.4788802    2.7822762   -0.1527079 
H    -5.2228337    4.8613608    1.3742879 
H    -3.4390683    4.8974731    1.1661796 
H    -4.1903046    3.6015128    2.1638899 
H    -5.5034586    1.8002349   -1.8897591 
