15
Energy =
C    -6.9426907    3.0112452   -0.0688272 
C    -5.6137864    2.2739515    0.0118079 
H    -7.0332280    3.7421169    0.7610845 
H    -7.7691658    2.2739744    0.0028037 
H    -7.0435515    3.5386357   -1.0380621 
C    -4.3891074    3.2022599    0.0354499 
O    -5.5180911    1.3543465   -1.0594456 
H    -5.6103446    1.6814041    0.9638258 
C    -4.2878391    4.1871376   -1.1457689 
H    -3.4833092    2.5531280    0.0458493 
H    -4.3926772    3.7759839    0.9890197 
H    -5.1353801    4.9050054   -1.1448247 
H    -4.2625060    3.6474532   -2.1160099 
H    -3.3485091    4.7760070   -1.0637644 
H    -5.6336132    1.7891706   -1.9683522 
