15
Energy =
C    -6.9458488    2.9612112   -0.0113554 
C    -5.5679626    2.3212002    0.0774130 
H    -7.1522339    3.5757722    0.8878659 
H    -7.7117329    2.1600983   -0.0752941 
H    -7.0267714    3.5949190   -0.9179931 
C    -4.4328526    3.3439238   -0.0128591 
O    -5.4366462    1.4004672   -0.9891417 
H    -5.4823714    1.7540725    1.0421431 
C    -4.3033925    4.2069637    1.2557761 
H    -4.5775060    3.9882274   -0.9089543 
H    -3.4852319    2.7792122   -0.1759474 
H    -4.1673420    3.5715274    2.1589013 
H    -5.2010731    4.8473801    1.3971945 
H    -3.4194208    4.8767185    1.1707426 
H    -5.5323152    1.8317386   -1.9042155 
