15
Energy =
C    -6.9257945    2.8130460    0.0151016 
C    -5.4963521    2.2983534    0.1033025 
H    -7.0717316    3.4106888   -0.9077439 
H    -7.1753579    3.4330545    0.8994821 
H    -7.6192970    1.9467105   -0.0161452 
C    -4.4560421    3.4129944   -0.0303939 
O    -5.2966479    1.3622201   -0.9389224 
H    -5.3509887    1.7688234    1.0821342 
C    -4.3894885    4.3209180    1.2114847 
H    -4.6656144    4.0154547   -0.9426135 
H    -3.4643915    2.9284372   -0.1893257 
H    -3.5679916    5.0619248    1.0963878 
H    -4.1895602    3.7263562    2.1304104 
H    -5.3379939    4.8850063    1.3459865 
H    -5.4403605    1.7566276   -1.8642780 
