15
Energy =
C    -6.8609227    2.9977442    0.1100731 
C    -5.5323756    2.2723727    0.0390966 
H    -6.9934102    3.6202831   -0.7994226 
H    -6.9188435    3.6341913    1.0173266 
H    -7.6822214    2.2526426    0.1336598 
C    -4.3670590    3.2592123   -0.0249007 
O    -5.5408394    1.5033271   -1.1495086 
H    -5.4224630    1.6234454    0.9469850 
C    -3.0098090    2.5465937    0.0867975 
H    -4.4573684    4.0054512    0.7955723 
H    -4.4281389    3.8030417   -0.9958618 
H    -2.9175386    2.0224405    1.0625007 
H    -2.1827549    3.2835717    0.0002643 
H    -2.9030660    1.8004794   -0.7337431 
H    -5.4707254    0.5075207   -0.9699990 
