15
Energy =
C    -6.9348852    2.9606725   -0.0422309 
C    -5.5804537    2.2700354    0.0259195 
H    -7.0690545    3.4720782   -1.0159920 
H    -7.0373371    3.6984276    0.7801554 
H    -7.7344314    2.1966784    0.0516707 
C    -4.3879840    3.2396122    0.0188754 
O    -5.4701133    1.3409634   -1.0356921 
H    -5.5419390    1.6898437    0.9847424 
C    -4.3386341    4.2120862   -1.1758190 
H    -3.4605427    2.6217317    0.0228295 
H    -4.3964457    3.8250346    0.9652572 
H    -3.4189296    4.8336561   -1.1158586 
H    -5.2102591    4.9004933   -1.1704670 
H    -4.3096963    3.6610079   -2.1395269 
H    -5.6161901    1.7599507   -1.9476454 
