15
Energy =
C    -6.9583047    2.9706144   -0.0088050 
C    -5.5891078    2.3134524    0.0734264 
H    -7.7471438    2.1913265    0.0113112 
H    -7.0498448    3.5288978   -0.9638025 
H    -7.1251883    3.6567539    0.8450417 
C    -4.4595885    3.3399438   -0.0052160 
O    -5.4533385    1.4657194   -1.0497804 
H    -5.4745491    1.7249296    1.0211582 
C    -4.3128555    4.1870546    1.2744372 
H    -4.6144251    3.9825573   -0.9013834 
H    -3.5141638    2.7804219   -0.1907940 
H    -3.4155008    4.8391651    1.1952199 
H    -4.1895345    3.5381856    2.1694052 
H    -5.1961837    4.8445926    1.4234459 
H    -6.0217185    0.6278062   -0.9730599 
