15
Energy =
C    -6.9621836    2.9408298    0.0390470 
C    -5.5797686    2.3094709    0.0979366 
H    -7.1145933    3.6499745    0.8766372 
H    -7.7361598    2.1494999    0.1071813 
H    -7.0930064    3.4680719   -0.9289439 
C    -4.4717381    3.3519094   -0.0478459 
O    -5.4642898    1.4297830   -1.0027040 
H    -5.4250850    1.7525886    1.0590748 
C    -4.2991698    4.2395377    1.2007041 
H    -4.6665362    3.9647538   -0.9569721 
H    -3.5229505    2.8030540   -0.2476048 
H    -5.1890068    4.8860120    1.3590269 
H    -3.4168575    4.9042875    1.0727011 
H    -4.1351696    3.6202533    2.1099889 
H    -6.0152255    0.5853273   -0.8827855 
