15
Energy =
C    -6.9316014    2.8256232    0.0310226 
C    -5.5051600    2.3005071    0.1053573 
H    -7.0827388    3.4226133   -0.8914164 
H    -7.1673597    3.4491394    0.9167323 
H    -7.6317860    1.9643995    0.0086674 
C    -4.4581179    3.4071341   -0.0415791 
O    -5.3232762    1.3608600   -0.9369622 
H    -5.3535244    1.7718523    1.0837231 
C    -4.3714234    4.3166567    1.1978945 
H    -4.6731216    4.0096418   -0.9525045 
H    -3.4718947    2.9149079   -0.2104973 
H    -4.1657228    3.7222850    2.1156745 
H    -5.3143557    4.8877508    1.3417444 
H    -3.5459809    5.0515704    1.0724615 
H    -5.4743146    1.7543876   -1.8615332 
