15
Energy =
C    -6.9137252    3.0187652   -0.2083107 
C    -5.6118458    2.3101672    0.1324913 
H    -7.1450626    3.8096260    0.5324458 
H    -7.7469987    2.2869615   -0.2084732 
H    -6.8449238    3.4624754   -1.2234433 
C    -4.4180566    3.2635002    0.0923572 
O    -5.3873305    1.3280133   -0.8592448 
H    -5.6583945    1.8349377    1.1472943 
C    -4.3822534    4.2486740    1.2775872 
H    -4.4154774    3.8018923   -0.8824109 
H    -3.4944979    2.6403134    0.0989218 
H    -4.4154754    3.7057602    2.2478221 
H    -5.2339004    4.9610487    1.2324803 
H    -3.4426162    4.8427395    1.2470320 
H    -6.0139257    0.5343670   -0.7669104 
