15
Energy =
C    -6.9126843    2.7820595   -0.0419181 
C    -5.5059165    2.2164946    0.0395984 
H    -7.0333307    3.3998907   -0.9556770 
H    -7.1394017    3.3979092    0.8530820 
H    -7.6362284    1.9414404   -0.0949809 
C    -4.4540746    3.3321298    0.0389581 
O    -5.3086937    1.3564908   -1.0674815 
H    -5.4020261    1.6173121    0.9828719 
C    -3.0141204    2.7820165    0.1300958 
H    -4.6498221    4.0107311    0.9002144 
H    -4.5689309    3.9432364   -0.8850413 
H    -2.4491492    3.0257261   -0.7957560 
H    -2.9954308    1.6719932    0.2368289 
H    -2.4755867    3.2257394    0.9951775 
H    -5.3138659    1.8475466   -1.9562193 
