46
Energy = -1034.7012743
C    -0.9820099    1.1628500   -1.4299621 
C    -0.0728121    0.7361214   -0.2506440 
N     0.8951672    1.8013324    0.0777304 
C    -0.3192532    2.3641434   -2.1175102 
H    -1.9730345    1.4451050   -1.0762063 
H    -1.1045359    0.3380000   -2.1334477 
C    -0.3669274    3.5806910   -1.1578897 
C     0.2353074    3.1029933    0.2123436 
H     0.9687083    3.8265393    0.5702400 
H    -0.5526293    3.0201193    0.9538269 
C     1.8706636    1.8726185   -1.0192769 
C     1.1580745    2.0500550   -2.3898549 
H    -0.8406159    2.6083030   -3.0428472 
H     2.4754248    0.9637642   -1.0071988 
H     2.5395418    2.7101506   -0.8130166 
H     1.6188278    2.8537454   -2.9684492 
H     1.2331776    1.1397733   -2.9892973 
C    -1.7013757    4.1378880   -1.0128579 
H     0.2746306    4.3611305   -1.5796731 
C    -2.8074658    4.5873823   -0.8825367 
H    -3.7850764    4.9857907   -0.7668550 
C    -0.8363225    0.2348710    0.9865014 
H     0.5387723   -0.1082900   -0.5702584 
C    -1.3475266   -1.1712767    0.7548328 
O    -1.8875616    1.1456137    1.2955392 
H    -0.1175609    0.2262468    1.8115622 
H    -2.3062898    0.8612923    2.1152928 
C    -0.4691036   -2.2878751    0.8451939 
C    -2.6591204   -1.4061361    0.4231426 
C    -3.0986406   -2.7231832    0.1858062 
N    -2.3206899   -3.7768117    0.2605794 
C    -1.0178486   -3.5773614    0.5855678 
H    -4.1365566   -2.9023001   -0.0787124 
H    -3.3528056   -0.5813664    0.3375245 
C     0.9067755   -2.1734438    1.1724488 
C    -0.1676614   -4.7094049    0.6657664 
C     1.1527507   -4.5771080    0.9793802 
C     1.6995155   -3.2955665    1.2357943 
H    -0.6054609   -5.6783141    0.4665837 
H     1.8100504   -5.4342934    1.0409900 
H     1.3281268   -1.2006314    1.3679423 
O     3.0238421   -3.2889557    1.5350450 
C     3.6434628   -2.0403029    1.7989112 
H     4.6876440   -2.2608518    2.0060377 
H     3.1938008   -1.5500162    2.6672118 
H     3.5746208   -1.3730305    0.9346996 
