46
Energy = -1034.7010596
C     1.0756853    2.1836484    0.4636186 
C     0.5086750    0.7680726    0.1756807 
N     1.5979713   -0.2062078    0.0071232 
C     2.5823076    2.1592982    0.1813978 
H     0.8963155    2.4711363    1.5010644 
H     0.5813906    2.9291987   -0.1599207 
C     3.2705115    1.2255709    1.2100027 
C     2.5377041   -0.1628280    1.1225655 
H     3.2655957   -0.9638227    0.9905817 
H     2.0070437   -0.3593418    2.0510279 
C     2.3121073    0.1123573   -1.2336869 
C     2.8312165    1.5792561   -1.2179430 
H     3.0018731    3.1618811    0.2640237 
H     1.6355117   -0.0589668   -2.0720558 
H     3.1372152   -0.5950404   -1.3329048 
H     3.8948867    1.6210965   -1.4630055 
H     2.3078576    2.1863846   -1.9600200 
C     3.2616019    1.7641922    2.5600183 
H     4.3140126    1.1000390    0.9052094 
C     3.2262706    2.1926538    3.6818756 
H     3.2068022    2.5776594    4.6716480 
C    -0.5008869    0.3226848    1.2406898 
H    -0.0230606    0.7779782   -0.7757736 
C    -0.9962994   -1.0915285    1.0412544 
O    -1.5458008    1.3020005    1.2112279 
H    -0.0102554    0.3638738    2.2196908 
H    -2.2173938    1.0456062    1.8524794 
C    -1.8234804   -1.4898784   -0.0480756 
C    -0.5952763   -2.0605486    1.9286148 
C    -0.9682607   -3.4032433    1.7366774 
N    -1.7015020   -3.8118980    0.7294063 
C    -2.1327070   -2.8793059   -0.1577279 
H    -0.6394802   -4.1607955    2.4418882 
H     0.0277812   -1.7996986    2.7753923 
C    -2.3481805   -0.5908940   -1.0124529 
C    -2.9294414   -3.3199143   -1.2447883 
C    -3.4075020   -2.4398805   -2.1695996 
C    -3.1191805   -1.0585824   -2.0496861 
H    -3.1441527   -4.3781310   -1.3086418 
H    -4.0176709   -2.7658373   -3.0015753 
H    -2.1622114    0.4620121   -0.8932397 
O    -3.6656813   -0.2755692   -3.0175980 
C    -3.4229003    1.1202999   -2.9606019 
H    -3.9415157    1.5509425   -3.8137487 
H    -2.3533539    1.3394431   -3.0339260 
H    -3.8141425    1.5546269   -2.0361869 
