46
Energy = -1034.6948504
C     1.3882261    2.3226361   -1.4722276 
C     0.7680452    0.9124470   -1.7224586 
N     1.8127462   -0.1219584   -1.6583448 
C     2.8863258    2.1593146   -1.1958270 
H     0.9245133    2.8162785   -0.6146608 
H     1.2390603    2.9739611   -2.3347319 
C     3.0826105    1.2276057    0.0293522 
C     2.4513698   -0.1645010   -0.3486696 
H     3.2295114   -0.9274843   -0.3793569 
H     1.7287134   -0.4715825    0.4041200 
C     2.8247571    0.1526169   -2.6820511 
C     3.5523366    1.4995560   -2.4091286 
H     3.3392970    3.1288821   -0.9877596 
H     2.3261826    0.1663821   -3.6528336 
H     3.5298510   -0.6801913   -2.6911776 
H     4.6150053    1.3395495   -2.2118165 
H     3.4839729    2.1647172   -3.2723332 
C     2.5107310    1.7778736    1.2485486 
H     4.1574590    1.1022383    0.1887644 
C     2.0037284    2.2095340    2.2485960 
H     1.5676906    2.5887336    3.1400572 
C    -0.3935434    0.6494455   -0.7562279 
H     0.3555564    0.8772296   -2.7325758 
C    -1.0330402   -0.7159473   -0.8392314 
O    -1.4371158    1.6042311   -1.0053953 
H    -0.0251134    0.7893480    0.2641150 
H    -1.1448182    2.4663249   -0.6890453 
C    -1.8182080   -1.1913269    0.2544707 
C    -0.9117325   -1.5252060   -1.9368501 
C    -1.5444881   -2.7866398   -1.9618483 
N    -2.2579234   -3.2663181   -0.9745000 
C    -2.4028905   -2.4895193    0.1323348 
H    -1.4400771   -3.4177272   -2.8396798 
H    -0.3145309   -1.2256667   -2.7842317 
C    -2.0417716   -0.4551164    1.4346192 
C    -3.1693175   -2.9942473    1.2039272 
C    -3.3655382   -2.2643393    2.3475785 
C    -2.7952744   -0.9759323    2.4627297 
H    -3.5995408   -3.9802946    1.0902156 
H    -3.9574855   -2.6786849    3.1500823 
H    -1.6459720    0.5425925    1.5515439 
O    -2.9499153   -0.1834576    3.5611554 
C    -3.7329750   -0.6605180    4.6417678 
H    -3.7230766    0.1297298    5.3889503 
H    -3.3080705   -1.5709803    5.0749065 
H    -4.7652712   -0.8535881    4.3351277 
