46
Energy = -1034.6997599
C     0.1238181    2.8670750   -0.0178562 
C    -0.6894038    1.6819464   -0.6195180 
N    -0.1594153    1.3114333   -1.9429083 
C     1.2726380    3.2053443   -0.9731832 
H     0.5085992    2.6067208    0.9672607 
H    -0.5107781    3.7448170    0.1147898 
C     2.1502046    1.9460960   -1.2017762 
C     1.2235065    0.8555027   -1.8566890 
H     1.5666636    0.6367052   -2.8681544 
H     1.2715167   -0.0745442   -1.2940530 
C    -0.2289452    2.4763087   -2.8306991 
C     0.6899661    3.6255007   -2.3281976 
H     1.8886252    4.0020320   -0.5555839 
H    -1.2703842    2.7997856   -2.8785735 
H     0.0563479    2.1537326   -3.8334545 
H     1.4952721    3.8232641   -3.0398414 
H     0.1281614    4.5547177   -2.2141702 
C     2.7856822    1.4735569    0.0184660 
H     2.9420884    2.2112093   -1.9084729 
C     3.2872188    1.0614599    1.0293819 
H     3.7446584    0.7091474    1.9207885 
C    -0.7151021    0.5001732    0.3571601 
H    -1.7241320    1.9970261   -0.7824256 
C    -1.3992057   -0.7588048   -0.1236940 
O    -1.2925930    0.9345816    1.5993225 
H     0.3157743    0.2589761    0.6176466 
H    -2.2518445    0.8843392    1.5135220 
C    -1.1610594   -1.9891158    0.5554925 
C    -2.2797994   -0.7692689   -1.1781655 
C    -2.9105042   -1.9698897   -1.5581476 
N    -2.7023782   -3.1228222   -0.9680607 
C    -1.8372335   -3.1495170    0.0770500 
H    -3.6053415   -1.9682007   -2.3927528 
H    -2.4715017    0.1266551   -1.7485813 
C    -0.2917476   -2.1050517    1.6686767 
C    -1.6010421   -4.3918619    0.7186035 
C    -0.7494662   -4.4833360    1.7793279 
C    -0.0883017   -3.3273001    2.2633703 
H    -2.1211721   -5.2595444    0.3355457 
H    -0.5610512   -5.4256729    2.2765025 
H     0.1846195   -1.2202998    2.0570438 
O     0.7251920   -3.5403390    3.3306599 
C     1.4248540   -2.4288499    3.8665209 
H     2.0130310   -2.8153689    4.6953422 
H     0.7338861   -1.6640274    4.2324089 
H     2.0900784   -1.9842913    3.1200760 
