46
Energy = -1034.6961678
C     0.9138098    2.4206779    0.4785707 
C     0.5062885    0.9337771    0.2828530 
N     1.6977909    0.0717357    0.2617390 
C     2.4314719    2.5313887    0.2872506 
H     0.6601521    2.7755314    1.4828835 
H     0.3939407    3.0633220   -0.2336390 
C     3.1345779    1.7605388    1.4337910 
C     2.5511684    0.2995624    1.4220276 
H     3.3633822   -0.4275138    1.4013296 
H     1.9823170    0.1216573    2.3314653 
C     2.4575507    0.3604654   -0.9587402 
C     2.8275281    1.8697173   -1.0398561 
H     2.7426448    3.5757307    0.3068471 
H     1.8575050    0.0543993   -1.8164536 
H     3.3532550   -0.2631648   -0.9490154 
H     3.8959032    2.0031149   -1.2236312 
H     2.2981764    2.3580544   -1.8610122 
C     2.9737979    2.4033729    2.7275775 
H     4.2041587    1.7224806    1.2066040 
C     2.8105060    2.9155919    3.8020660 
H     2.6811314    3.3728751    4.7521250 
C    -0.5325807    0.4747215    1.3224463 
H     0.0405445    0.8162655   -0.6950503 
C    -0.9047072   -0.9777690    1.1634003 
O    -1.7098449    1.2833858    1.2252695 
H    -0.1042752    0.5948536    2.3230577 
H    -1.4824942    2.1806502    1.4919546 
C    -1.6300908   -1.4840081    0.0429108 
C    -0.4690335   -1.8763509    2.1012114 
C    -0.7081836   -3.2565243    1.9380038 
N    -1.3399870   -3.7645577    0.9109961 
C    -1.8038674   -2.9021787   -0.0337883 
H    -0.3514460   -3.9556280    2.6888435 
H     0.0790273   -1.5356627    2.9708262 
C    -2.1752460   -0.6790923   -0.9780740 
C    -2.4899867   -3.4446236   -1.1405443 
C    -2.9950798   -2.6437257   -2.1317427 
C    -2.8385932   -1.2421234   -2.0454909 
H    -2.6058025   -4.5195206   -1.1777904 
H    -3.5156146   -3.0909454   -2.9656060 
H    -2.1160971    0.3957841   -0.9176902 
O    -3.3240761   -0.3750931   -2.9795355 
C    -4.0469333   -0.8948329   -4.0818240 
H    -4.3435110   -0.0339946   -4.6767517 
H    -4.9418363   -1.4340197   -3.7570428 
H    -3.4273411   -1.5583252   -4.6927714 
