46
Energy = -1034.7015914
C    -1.2682233    1.0326506   -1.7328382 
C    -0.3764544    0.4521690   -0.6018747 
N     0.8546014    1.2558535   -0.4355257 
C    -0.5713660    2.2670379   -2.3170862 
H    -2.2575974    1.2915411   -1.3608212 
H    -1.4097283    0.2887282   -2.5181968 
C    -0.3501175    3.3192262   -1.1985440 
C     0.5462543    2.6388802   -0.0969737 
H     1.4847880    3.1838933    0.0076903 
H     0.0489937    2.6741588    0.8712576 
C     1.6146708    1.2242429   -1.6905982 
C     0.8067140    1.8621279   -2.8563517 
H    -1.1794253    2.7056713   -3.1083893 
H     1.8592344    0.1830178   -1.9063630 
H     2.5552716    1.7538220   -1.5284174 
H     1.3247626    2.7349250   -3.2606858 
H     0.6828401    1.1541316   -3.6778070 
C    -1.5944225    3.8257082   -0.6422172 
H     0.1926606    4.1645560   -1.6307877 
C    -2.6171060    4.2100178   -0.1405956 
H    -3.5250172    4.5614741    0.2855663 
C    -1.0967060    0.2637484    0.7760564 
H    -0.0251567   -0.5310486   -0.9081559 
C    -1.4268169   -1.1924680    0.9995613 
O    -2.2884120    1.0135702    0.9356126 
H    -0.3731252    0.5619024    1.5426719 
H    -2.1287274    1.9485660    0.7523100 
C    -0.3826020   -2.1351049    1.2171365 
C    -2.7201498   -1.6495295    0.9851119 
C    -2.9777117   -3.0216771    1.1768565 
N    -2.0452296   -3.9225151    1.3770186 
C    -0.7556462   -3.4974454    1.4012290 
H    -4.0031758   -3.3792764    1.1619996 
H    -3.5363499   -0.9585848    0.8355214 
C     0.9904445   -1.7791096    1.2517137 
C     0.2634716   -4.4590955    1.6181571 
C     1.5787866   -4.0980506    1.6456648 
C     1.9483730   -2.7437093    1.4587354 
H    -0.0416728   -5.4873816    1.7588784 
H     2.3632613   -4.8251746    1.8089344 
H     1.2774407   -0.7502059    1.0990298 
O     3.2855294   -2.5020224    1.4989641 
C     3.7222201   -1.1642212    1.3194618 
H     4.8078494   -1.1926266    1.3742833 
H     3.3314718   -0.5112886    2.1053814 
H     3.4113001   -0.7710844    0.3474255 
