46
Energy = -1034.6986486
C    -0.8799967    1.3140561   -1.4964176 
C    -0.0014654    0.9714484   -0.2677459 
N     0.9824427    2.0417684   -0.0143562 
C    -0.1686228    2.4250822   -2.2807548 
H    -1.8663958    1.6592958   -1.1873416 
H    -1.0203036    0.4316069   -2.1223627 
C    -0.2016479    3.7285279   -1.4425759 
C     0.3551213    3.3659269   -0.0186246 
H     1.1004013    4.1007261    0.2882107 
H    -0.4509238    3.3735108    0.7072384 
C     1.9842713    1.9876083   -1.0885145 
C     1.3048128    2.0469776   -2.4861421 
H    -0.6633281    2.5927507   -3.2372820 
H     2.5692578    1.0733952   -0.9741888 
H     2.6656215    2.8285802   -0.9475834 
H     1.7995922    2.7770660   -3.1305989 
H     1.3663437    1.0801481   -2.9912415 
C    -1.5220016    4.3330355   -1.3843002 
H     0.4718547    4.4476019   -1.9199778 
C    -2.6171494    4.8226822   -1.3242109 
H    -3.5847078    5.2570777   -1.2703941 
C    -0.7960017    0.5883448    0.9905710 
H     0.5973725    0.0903673   -0.5021933 
C    -1.3990767   -0.7915251    0.8309409 
O    -1.7900757    1.5784950    1.2414278 
H    -0.0808455    0.5794846    1.8183797 
H    -2.2188589    1.3744073    2.0796165 
C    -0.6020310   -1.9642320    0.9967068 
C    -2.7175365   -0.9530425    0.4933505 
C    -3.2497578   -2.2490690    0.3177375 
N    -2.5541104   -3.3490760    0.4585543 
C    -1.2415605   -3.2260970    0.7956912 
H    -4.2951213   -2.3646185    0.0465780 
H    -3.3506268   -0.0878881    0.3541971 
C     0.7644206   -1.9397963    1.3429176 
C    -0.4812094   -4.4039992    0.9513958 
C     0.8475441   -4.3584491    1.2864955 
C     1.4791077   -3.1097969    1.4857335 
H    -0.9849659   -5.3485639    0.7954780 
H     1.4013050   -5.2788220    1.3975076 
H     1.2868840   -1.0077341    1.5044713 
O     2.7913838   -2.9784117    1.8210327 
C     3.5770436   -4.1478553    1.9851442 
H     4.5736522   -3.8016894    2.2483494 
H     3.6293065   -4.7287269    1.0596947 
H     3.1905818   -4.7805791    2.7893863 
