46
Energy = -1034.6969168
C     1.4419366    2.3953889   -1.3674091 
C     0.7908730    1.0231294   -1.7157227 
N     1.8035098   -0.0451948   -1.7145016 
C     2.9233830    2.1662689   -1.0523571 
H     0.9370837    2.8545461   -0.5184186 
H     1.3473415    3.0898259   -2.2035091 
C     3.0591442    1.1402813    0.1040076 
C     2.4149507   -0.2045409   -0.3999570 
H     3.1817557   -0.9756414   -0.4792840 
H     1.6726601   -0.5610737    0.3111672 
C     2.8441967    0.2845968   -2.6930799 
C     3.6120031    1.5751448   -2.2888431 
H     3.3968707    3.1035763   -0.7592159 
H     2.3639447    0.4031775   -3.6659857 
H     3.5204648   -0.5687796   -2.7668261 
H     4.6594275    1.3552687   -2.0679321 
H     3.6021350    2.3062504   -3.0996109 
C     2.4615940    1.6061010    1.3459200 
H     4.1254671    0.9778209    0.2867590 
C     1.9382034    1.9681467    2.3649136 
H     1.4839788    2.2915082    3.2690339 
C    -0.3693194    0.7257275   -0.7673151 
H     0.3781623    1.0615081   -2.7259638 
C    -1.0196260   -0.6322671   -0.8985816 
O    -1.3337772    1.7584793   -1.0296915 
H    -0.0017868    0.8404143    0.2556162 
H    -2.0964373    1.6120469   -0.4590361 
C    -1.7920931   -1.1440741    0.1887261 
C    -0.9602487   -1.3791339   -2.0453162 
C    -1.6502135   -2.6069347   -2.1282461 
N    -2.3718664   -3.1086004   -1.1567699 
C    -2.4536190   -2.3966137   -0.0016769 
H    -1.5928920   -3.1900053   -3.0427592 
H    -0.3738051   -1.0490615   -2.8891373 
C    -1.9406633   -0.4802034    1.4254092 
C    -3.2289346   -2.9234182    1.0528966 
C    -3.3611815   -2.2600176    2.2453602 
C    -2.7074961   -1.0210879    2.4343811 
H    -3.7185340   -3.8736398    0.8863444 
H    -3.9618871   -2.6911283    3.0322775 
H    -1.4470505    0.4615281    1.6219007 
O    -2.7830607   -0.3011951    3.5876168 
C    -3.5534203   -0.8117199    4.6634929 
H    -3.4677050   -0.0806167    5.4638733 
H    -3.1675472   -1.7743776    5.0110943 
H    -4.6059214   -0.9214103    4.3863557 
