24
Energy =
C    -0.5268974    1.6924037    0.6250993 
C    -0.1286170    2.7200958   -0.1713239 
C     0.8706563    2.5271449   -1.0620642 
C     0.0768856    0.4806494    0.5277287 
C     1.0877197    0.2876947   -0.3639960 
C     1.4776097    1.3173728   -1.1643506 
O    -0.7296898    3.9804764   -0.0972719 
H    -1.4678462    4.0462466    0.5952227 
H     2.2758342    1.1810683   -1.8900224 
H    -0.2587144   -0.3376982    1.1616823 
H    -1.3311123    1.8365453    1.3387158 
H     1.1760807    3.3548168   -1.6931404 
C     1.7492982   -1.0667922   -0.4896083 
C     1.1175587   -1.9173914   -1.6099057 
H     1.6796503   -1.6290565    0.4699134 
H     2.8373801   -0.9287454   -0.6820210 
C     1.9740289   -3.1371778   -1.9101607 
O     2.6894309   -3.7791772   -0.9040056 
O     2.0359512   -3.6293497   -3.2069768 
H     2.6274351   -4.4509132   -3.2165108 
N    -0.2515881   -2.2989801   -1.2141763 
H     1.0969827   -1.3327137   -2.5603936 
H    -0.8846601   -1.4756181   -1.3458660 
H    -0.6098419   -3.0324205   -1.8740868 
