24
Energy =
C     0.4321380    1.8501456    1.0760748 
C     0.1556934    2.7740449    0.1175917 
C     0.4815412    2.5189393   -1.1694890 
C     1.0312656    0.6780870    0.7434964 
C     1.3580352    0.4191696   -0.5529947 
C     1.0803156    1.3490405   -1.5081334 
O    -0.4598534    3.9915376    0.4260947 
H    -0.6781430    4.1143011    1.4084138 
H     1.3360258    1.1619821   -2.5480059 
H     1.2464474   -0.0485154    1.5226066 
H     0.1739367    2.0497830    2.1095845 
H     0.2569598    3.2633993   -1.9265598 
C     2.0223676   -0.8873191   -0.9348425 
C     1.0533379   -1.8545877   -1.6654306 
H     2.4519522   -1.3977132   -0.0429677 
H     2.8928739   -0.6600796   -1.5922522 
C     1.8041628   -3.0253167   -2.3095695 
O     3.0853430   -3.3561808   -1.8832206 
O     1.2063855   -3.8024127   -3.3000217 
H     0.2547292   -3.5136763   -3.4774994 
N    -0.0400049   -2.3052332   -0.7692017 
H     0.5951456   -1.3052819   -2.5181805 
H    -0.0560882   -3.3505268   -0.6746328 
H     0.0633333   -1.9377808    0.2047128 
