24
Energy =
C     0.1963237    1.8334495    0.9828414 
C    -0.2072478    2.6608186   -0.0087605 
C     0.0956608    2.3732215   -1.2954862 
C     0.8985386    0.7093277    0.6900849 
C     1.2056854    0.4123507   -0.6035188 
C     0.7978143    1.2510721   -1.5963381 
O    -0.9276464    3.8117566    0.2949724 
H    -1.9230074    3.6189100    0.3095023 
H     1.0344071    1.0323136   -2.6348339 
H     1.2134821    0.0530391    1.4974018 
H    -0.0442144    2.0823223    2.0106912 
H    -0.2249762    3.0505172   -2.0801322 
C     1.9763845   -0.8445302   -0.9397423 
C     1.0557581   -1.9756737   -1.4635117 
H     2.5514825   -1.2065749   -0.0568979 
H     2.7454431   -0.5997168   -1.7081797 
C     1.8606028   -3.1235463   -2.0483536 
O     3.0708423   -3.5026960   -1.4817811 
O     1.3627800   -3.8478459   -3.1209776 
H     0.6954165   -4.5162169   -2.7640635 
N     0.1611043   -2.4587171   -0.3975380 
H     0.4427863   -1.5900440   -2.3106432 
H     0.7266072   -2.7435226    0.4382724 
H    -0.4807601   -1.6882379   -0.0968293 
