24
Energy =
C    -0.4512779    1.9235958    0.3307217 
C    -0.4734514    2.6369454   -0.8186737 
C     0.2888851    2.2532626   -1.8684653 
C     0.3305443    0.8183676    0.4324024 
C     1.1021966    0.4270734   -0.6198493 
C     1.0728060    1.1488250   -1.7747338 
O    -1.2758960    3.7688574   -0.9192730 
H    -2.2017763    3.5241474   -1.2523448 
H     1.6782955    0.8509406   -2.6272892 
H     0.3329797    0.2461458    1.3577663 
H    -1.0625531    2.2477126    1.1661926 
H     0.2680417    2.8394077   -2.7813023 
C     1.9616071   -0.8135802   -0.5179982 
C     1.2419997   -2.0637501   -1.0636547 
H     2.2561212   -1.0014993    0.5400552 
H     2.9143957   -0.6489177   -1.0705297 
C     2.1998616   -3.2455451   -1.1891209 
O     3.4389087   -3.2380002   -0.5614021 
O     1.8317343   -4.3566385   -1.9362046 
H     1.9397588   -4.1495353   -2.9177075 
N     0.1020144   -2.3819615   -0.1823373 
H     0.8801425   -1.8573600   -2.0976351 
H    -0.7032456   -1.7608328   -0.4297863 
H    -0.2259084   -3.3623584   -0.3719330 
