24
Energy =
C    -1.0025183    1.7862102   -1.2471675 
C    -1.4812072    1.6909940    0.0147280 
C    -0.7606977    1.0533305    0.9653432 
C     0.2098853    1.2588359   -1.5591515 
C     0.9478350    0.6283491   -0.6024724 
C     0.4493267    0.5193282    0.6606045 
O    -2.7202389    2.2392289    0.3323666 
H    -2.6235062    3.2079629    0.6158193 
H     1.0112206    0.0007366    1.4335641 
H     0.5753836    1.3237428   -2.5841194 
H    -1.6068126    2.2768667   -2.0030396 
H    -1.1643674    0.9670566    1.9686154 
C     2.2883524    0.0165083   -0.9502397 
C     2.1355383   -1.3808421   -1.5848593 
H     2.9128601   -0.0785713   -0.0327394 
H     2.8550639    0.6954479   -1.6230632 
C     1.4118617   -1.3435598   -2.9322862 
O     0.2405324   -2.0696672   -3.0925149 
O     1.8630067   -0.5597312   -3.9967382 
H     2.7661253   -0.1509974   -3.8167339 
N     3.4655518   -2.0093337   -1.6681708 
H     1.4935360   -1.9985357   -0.9114367 
H     3.3511614   -3.0050889   -1.9769867 
H     4.0480589   -1.5391297   -2.4004961 
