24
Energy =
C     0.8403084    2.7153843   -1.1743147 
C    -0.0383737    2.9172868   -0.1572622 
C    -0.2748831    1.9243597    0.7289139 
C     1.4731155    1.5214634   -1.3023278 
C     1.2324132    0.5168139   -0.4132492 
C     0.3564587    0.7273505    0.6078335 
O    -0.7115405    4.1309206    0.0013844 
H    -0.4689983    4.8397187   -0.6836091 
H     0.1613613   -0.0495193    1.3470105 
H     2.1845762    1.3841559   -2.1150656 
H     1.0421322    3.5117819   -1.8838112 
H    -0.9748119    2.1086200    1.5393224 
C     1.9308768   -0.8187444   -0.5692491 
C     1.1196495   -1.8650649   -1.4002677 
H     2.1808379   -1.2412967    0.4348013 
H     2.9195152   -0.6659379   -1.0608374 
C    -0.0189234   -2.5346705   -0.6466295 
O    -0.1258710   -2.3738451    0.7234436 
O    -0.9493434   -3.3617294   -1.2666407 
H    -0.7424672   -3.4569968   -2.2671377 
N     0.6278130   -1.2938560   -2.6512169 
H     1.8151676   -2.6877996   -1.6679680 
H     0.2001516   -2.1007713   -3.1822722 
H    -0.1053191   -0.5625615   -2.4545106 
