24
Energy =
C    -0.9244619    1.2318970    0.8109445 
C     0.0081778    2.1870812    1.0695896 
C     1.3001391    1.9677353    0.7350072 
C    -0.5603620    0.0652237    0.2214542 
C     0.7408779   -0.1581447   -0.1115966 
C     1.6700101    0.8027851    0.1448240 
O    -0.3331632    3.4010137    1.6745977 
H    -1.3185932    3.4875495    1.8987830 
H     2.7129038    0.6460930   -0.1192707 
H    -1.3183424   -0.6866887    0.0146114 
H    -1.9635745    1.3990814    1.0729402 
H     2.0333628    2.7386985    0.9456174 
C     1.1494663   -1.4493373   -0.7848903 
C     1.2870918   -1.2902267   -2.3155882 
H     0.4121957   -2.2572615   -0.5711155 
H     2.1121577   -1.7985202   -0.3473889 
C     2.0082118   -2.4797239   -2.9337501 
O     2.7579491   -2.3051578   -4.0908619 
O     1.9240042   -3.7475650   -2.3702332 
H     2.4379274   -4.3925302   -2.9557228 
N    -0.0500138   -1.1116334   -2.9076724 
H     1.9258510   -0.4049474   -2.5441453 
H    -0.4208263   -0.1711421   -2.6358750 
H     0.0392642   -1.0863741   -3.9520712 
