24
Energy =
C     1.3260192    2.5842850   -1.1567785 
C     1.0306997    2.7671539    0.1506964 
C     0.9091346    1.6996395    0.9730842 
C     1.5121651    1.3317610   -1.6450240 
C     1.4022167    0.2524502   -0.8205163 
C     1.0911517    0.4434117    0.4917447 
O     0.8393247    4.0522319    0.6476532 
H     1.7148120    4.4430475    0.9780042 
H     0.9836430   -0.4052499    1.1627280 
H     1.7388288    1.1995260   -2.7016185 
H     1.4033100    3.4477981   -1.8088425 
H     0.6580293    1.8599825    2.0164156 
C     1.5750779   -1.1478654   -1.3667526 
C     0.2329055   -1.7674746   -1.7971498 
H     2.0551364   -1.7927099   -0.5984210 
H     2.2701990   -1.1479659   -2.2390920 
C    -0.3993196   -0.9806028   -2.9375109 
O     0.2941705   -0.7616179   -4.1208123 
O    -1.6681387   -0.4376942   -2.7872244 
H    -1.6037456    0.4034682   -2.2317810 
N     0.4761189   -3.1717472   -2.1717705 
H    -0.4927928   -1.7210849   -0.9505104 
H     0.6159243   -3.7441425   -1.3063782 
H    -0.3720073   -3.5629407   -2.6509842 
