24
Energy =
C    -0.5300426    1.7632062   -0.0539029 
C     0.2097770    2.8129712   -0.5042471 
C     1.4756949    2.5950825   -0.9135658 
C    -0.0125156    0.4920175   -0.0171912 
C     1.2741263    0.2947042   -0.4349074 
C     2.0065682    1.3508723   -0.8837660 
O    -0.3095183    4.1199174   -0.5499009 
H    -1.2743855    4.1343137   -0.2465760 
H     3.0205190    1.2040023   -1.2343261 
H    -1.8114431   -1.6855142    1.1085463 
H    -1.5492722    1.9162906    0.2795486 
H     2.0616360    3.4279631   -1.2741892 
C     1.8539044   -1.0969134   -0.4709557 
C     1.0044002   -2.0378122   -1.3418627 
H     1.9036876   -1.4827954    0.5692170 
H     2.8860593   -1.0864494   -0.8725914 
C    -0.3578990   -2.2320159   -0.7014638 
O    -0.7461665   -3.4829176   -0.2237767 
O    -1.1997719   -1.1459405   -0.3762381 
H    -0.9288459   -0.4883236    1.1565105 
N     0.9228030   -1.5339480   -2.7267627 
H     1.5015719   -3.0297023   -1.3544308 
H     0.3171799   -2.1861514   -3.2722675 
H     0.3714053   -0.6374124   -2.6750492 
