24
Energy =
C    -0.5903339    1.1768125    0.9306965 
C    -0.4551338    2.3893053    0.3462634 
C     0.4649952    2.5723630   -0.6280667 
C     0.2067314    0.1447353    0.5530780 
C     1.1437943    0.3231351   -0.4209771 
C     1.2626255    1.5443782   -1.0144371 
O    -1.2695105    3.4461309    0.7397015 
H    -0.8506516    3.9564074    1.5092368 
H     1.9889901    1.7020646   -1.8081882 
H     0.0775003   -0.8286190    1.0220480 
H    -1.3492024    1.0394817    1.6936424 
H     0.5511992    3.5450308   -1.1013516 
C     2.0247878   -0.8303837   -0.8615470 
C     1.3482445   -1.7502755   -1.8986413 
H     2.3289585   -1.4275146    0.0265913 
H     2.9689985   -0.4400050   -1.3028799 
C     0.1201322   -2.4603196   -1.3204041 
O    -1.1532871   -1.9526818   -1.5488461 
O     0.2549713   -3.5619555   -0.4751382 
H     1.2153615   -3.8605137   -0.3891183 
N     1.0600947   -0.9872267   -3.1258267 
H     2.0820510   -2.5456732   -2.1596382 
H     0.7581766   -1.6565957   -3.8730320 
H     0.2360303   -0.3578411   -2.9644716 
