24
Energy =
C     0.4605451    2.3190606    0.2944479 
C    -0.7253714    1.9167273    0.8237075 
C    -1.0662849    0.6092388    0.7823666 
C     1.2983179    1.4126711   -0.2698167 
C     0.9565725    0.0951913   -0.3136755 
C    -0.2334322   -0.3008769    0.2174595 
O    -1.6105361    2.8227017    1.4160675 
H    -1.2917758    3.7855773    1.3896376 
H    -0.5239440   -1.3475103    0.1909648 
H     2.2376170    1.7534923   -0.6991049 
H     0.7409978    3.3667268    0.3165152 
H    -2.0163029    0.3031174    1.2064636 
C     1.8844243   -0.9247999   -0.9427065 
C     1.3871230   -1.4023601   -2.3343779 
H     1.9652970   -1.7885216   -0.2469687 
H     2.9163385   -0.5163817   -1.0368825 
C     1.6864740   -0.3999949   -3.4503805 
O     1.6269694    0.9696753   -3.2142001 
O     1.9633041   -0.8363727   -4.7406523 
H     2.0985591   -0.0316576   -5.3367808 
N     1.9676863   -2.7231478   -2.6320477 
H     0.2796733   -1.5084916   -2.3261858 
H     3.0137378   -2.6624830   -2.6388643 
H     1.6818970   -3.4200530   -1.9057491 
