24
Energy =
C     0.3881504    1.6021635    1.0562710 
C     0.5143411    2.7181143    0.2908811 
C     1.0045020    2.6148410   -0.9647800 
C     0.7515877    0.3916502    0.5623180 
C     1.2365026    0.2825133   -0.7063385 
C     1.3666576    1.4063900   -1.4655267 
O     0.1521446    3.9814341    0.7695224 
H    -0.2238121    3.9736550    1.7115679 
H     1.7618196    1.3493027   -2.4761702 
H     0.6446260   -0.4907747    1.1884842 
H    -0.0049360    1.6743871    2.0644425 
H     1.1025937    3.5141859   -1.5630745 
C     1.6415162   -1.0714005   -1.2614733 
C     0.4453259   -1.9509549   -1.7151448 
H     2.2232111   -1.6202127   -0.4859450 
H     2.3377705   -0.9456018   -2.1203390 
C    -0.4481631   -2.3576620   -0.5508559 
O    -1.5659881   -1.6074753   -0.1995232 
O    -0.1030869   -3.4566032    0.2238184 
H    -0.8044987   -3.5848886    0.9424005 
N    -0.2855299   -1.3493715   -2.8585747 
H     0.8669634   -2.9222418   -2.0633315 
H    -1.3021441   -1.2203580   -2.6319933 
H     0.0649403   -0.3943514   -3.0953590 
