24
Energy =
C    -0.4563246    1.1179862    1.1038763 
C    -0.5865735    2.3285505    0.5172041 
C     0.1092698    2.6031803   -0.6175028 
C     0.3651284    0.1794386    0.5695468 
C     1.0606772    0.4443352   -0.5720852 
C     0.9298850    1.6672680   -1.1591669 
O    -1.4373316    3.2718964    1.1021376 
H    -1.4962747    4.1496286    0.5980774 
H     1.4809004    1.9069228   -2.0649108 
H     0.4516619   -0.7880995    1.0589177 
H    -1.0212323    0.9085932    2.0060907 
H     0.0105732    3.5730642   -1.0921069 
C     1.9816172   -0.6026516   -1.1747513 
C     1.2385041   -1.7247907   -1.9483212 
H     2.5917789   -1.0553438   -0.3610419 
H     2.7146879   -0.1239150   -1.8619252 
C     0.3620104   -2.5765354   -1.0214477 
O    -0.9853987   -2.2765005   -0.8582894 
O     0.9127315   -3.5914166   -0.2385815 
H     1.8949939   -3.7302661   -0.4220691 
N     0.5258639   -1.1968602   -3.1371032 
H     2.0151464   -2.4222321   -2.3334144 
H    -0.4995774   -1.4164309   -3.0980762 
H     0.5846626   -0.1566428   -3.2112567 
