24
Energy =
C    -0.6464398    1.4941293    0.6916700 
C    -0.6032129    2.5360996   -0.1702675 
C     0.2796089    2.5303143   -1.1954476 
C     0.2024843    0.4459920    0.5376467 
C     1.1039703    0.4398945   -0.4833774 
C     1.1311491    1.4853772   -1.3564075 
O    -1.4751101    3.6083857   -0.0095401 
H    -1.0701674    4.3100792    0.6001245 
H     1.8296410    1.4909659   -2.1897372 
H     0.1477736   -0.3947310    1.2257009 
H    -1.3725789    1.5039819    1.4972057 
H     0.2936935    3.3647217   -1.8887656 
C     2.0342146   -0.7379116   -0.6737465 
C     1.3865810   -1.8390755   -1.5299411 
H     2.3198528   -1.1720321    0.3115983 
H     2.9821717   -0.3947499   -1.1460486 
C     2.4254416   -2.8710679   -1.9485856 
O     2.4936344   -3.2943106   -3.2700902 
O     3.2991676   -3.4152077   -1.0146195 
H     3.8957174   -4.0881936   -1.4791503 
N     0.2667728   -2.4301595   -0.7643155 
H     1.0143659   -1.3847337   -2.4798186 
H    -0.6325563   -2.2402408   -1.2663696 
H     0.3558098   -3.4738125   -0.6998052 
