24
Energy =
C     0.1233118    1.9604180    0.8201654 
C    -0.0623776    2.8234777   -0.2044151 
C     0.4392942    2.5261918   -1.4325530 
C     0.8058489    0.8028456    0.6297412 
C     1.3130490    0.5022891   -0.5973858 
C     1.1226374    1.3701100   -1.6289439 
O    -0.7723473    4.0050780    0.0316613 
H    -0.8683498    4.6026311   -0.7820597 
H     1.5161933    1.1434131   -2.6168714 
H     0.9400780    0.1208940    1.4652798 
H    -0.2830327    2.2085557    1.7949469 
H     0.2935344    3.2121489   -2.2594541 
C     2.0606580   -0.7935737   -0.8225785 
C     1.1872466   -1.8648388   -1.5262093 
H     2.4537175   -1.1970560    0.1381608 
H     2.9605388   -0.5794591   -1.4438992 
C     1.9966550   -3.0958186   -1.9429790 
O     3.3257220   -3.2290199   -1.5526343 
O     1.4268557   -4.0988361   -2.7260871 
H     0.4395276   -3.9348211   -2.8659987 
N     0.0494586   -2.2496112   -0.6730532 
H     0.7959388   -1.4366015   -2.4769733 
H     0.3865956   -2.5250309    0.2803975 
H    -0.6009888   -1.4367210   -0.5588781 
