24
Energy =
C     0.6251430    2.4759627   -0.0771088 
C     0.1017168    2.1106466    1.1159639 
C     0.0877841    0.7988381    1.4719798 
C     1.1437717    1.5350838   -0.9194519 
C     1.1360014    0.2237599   -0.5588938 
C     0.5990148   -0.1409388    0.6365357 
O    -0.4156347    3.1060381    1.9488333 
H    -0.7981468    2.7634638    2.8246027 
H     0.5739121   -1.1872118    0.9322126 
H     1.5549122    1.8111829   -1.9165987 
H     0.6050958    3.5359553   -0.3308370 
H    -0.3354606    0.4989765    2.4244908 
C     1.6979133   -0.8127608   -1.5055938 
C     0.7446533   -1.0769656   -2.7143427 
H     1.9229892   -1.7591234   -0.9638357 
H     2.6962701   -0.4620519   -1.8677929 
C     1.4308207   -0.7993227   -4.0612447 
O     1.5967925   -1.8193331   -5.0033820 
O     1.9396150    0.4943897   -4.3206726 
H     1.8354126    1.1878062   -3.5676965 
N     0.1766905   -2.4362623   -2.6268348 
H    -0.0986533   -0.3488813   -2.7171682 
H     0.9375851   -3.1552915   -2.6957625 
H    -0.3102116   -2.5635136   -1.7082989 
