24
Energy =
C    -0.3724069    2.0006337   -0.4018090 
C     0.1521358    2.3704146    0.7984596 
C     1.2666443    1.7516243    1.2614295 
C     0.2257363    1.0195778   -1.1174080 
C     1.3295465    0.3862558   -0.6575587 
C     1.8598735    0.7662041    0.5372734 
O    -0.4304365    3.3788164    1.5737997 
H    -1.2561613    3.7955425    1.1563297 
H     2.7592203    0.2910135    0.9200966 
H    -0.1400343    0.5999793   -2.1536856 
H    -1.2633734    2.4816612   -0.7905053 
H     1.6816970    2.0567916    2.2162606 
C     1.9932251   -0.6765940   -1.5269550 
C     0.9972500   -1.6634441   -2.2073445 
H     2.6972389   -1.2687660   -0.8998385 
H     2.6027868   -0.1712242   -2.3076448 
C     0.1525614   -1.0039013   -3.3412958 
O    -0.4941427    0.2207744   -3.1229328 
O    -0.0657036   -1.6193169   -4.5801140 
H     0.3421671   -2.5357655   -4.6870218 
N     1.7557490   -2.8446678   -2.6498276 
H     0.2815740   -2.0041447   -1.4261516 
H     1.0925058   -3.6191033   -2.8873821 
H     2.3155689   -2.6091524   -3.5031895 
