24
Energy =
C     1.2645681    2.0117011    0.7432181 
C     1.0994704    2.9091871   -0.2559103 
C     1.0871906    2.4939813   -1.5433920 
C     1.4317644    0.6952410    0.4573396 
C     1.4386779    0.2717721   -0.8374057 
C     1.2559988    1.1797691   -1.8373820 
O     0.9333341    4.2583020    0.0415457 
H     1.8301495    4.7282944    0.0937869 
H     1.2304799    0.8585741   -2.8761010 
H     1.5549846   -0.0158683    1.2700689 
H     1.2532410    2.3567191    1.7714436 
H     0.9320453    3.2197070   -2.3348259 
C     1.6045884   -1.1989171   -1.1566066 
C     0.2571058   -1.9483561   -1.1528335 
H     2.2881200   -1.6615930   -0.4105703 
H     2.1049792   -1.3311171   -2.1422686 
C    -0.6772986   -1.4186614   -2.2434584 
O    -1.6895579   -0.5314785   -1.9021858 
O    -0.4981062   -1.7505698   -3.5846959 
H     0.2201701   -2.4552165   -3.6717897 
N     0.5303836   -3.3891901   -1.3121606 
H    -0.2640643   -1.7676799   -0.1812894 
H     1.0634030   -3.7372828   -0.4786478 
H    -0.3778207   -3.9154441   -1.2983459 
