24
Energy =
C    -0.2922400    2.1367511   -0.3209911 
C    -1.3960996    1.4525387    0.0608828 
C    -1.3376357    0.1101605    0.2250417 
C     0.8732534    1.4799099   -0.5448302 
C     0.9410867    0.1285017   -0.3794117 
C    -0.1757391   -0.5531939    0.0031330 
O    -2.5896474    2.1298094    0.2927891 
H    -3.1470429    2.1749352   -0.5537406 
H    -0.1465784   -1.6323682    0.1305269 
H     1.7471886    2.0437732   -0.8633316 
H    -0.3487305    3.2128330   -0.4490926 
H    -2.2267415   -0.4296414    0.5342854 
C     2.2316164   -0.6147857   -0.6628320 
C     2.2353043   -1.2505618   -2.0738917 
H     2.3634080   -1.4142869    0.0999202 
H     3.1052502    0.0679298   -0.5591195 
C     2.0664433   -0.1757231   -3.1502024 
O     3.1603506    0.6066506   -3.5154545 
O     0.8236553    0.0890475   -3.7350880 
H     0.0849621   -0.5019486   -3.3739643 
N     3.4443321   -2.0787313   -2.2898921 
H     1.3678672   -1.9436034   -2.1306016 
H     4.0150235   -1.7323608   -3.0977113 
H     4.0810688   -2.0648413   -1.4597614 
