24
Energy =
C    -0.2638998    2.3237627   -1.2376874 
C    -0.6063080    2.4069367    0.0755665 
C    -0.0849289    1.5260506    0.9593725 
C     0.6006823    1.3649604   -1.6574770 
C     1.1363555    0.4853374   -0.7671514 
C     0.7812220    0.5668430    0.5452413 
O    -1.4911535    3.3842444    0.5412121 
H    -1.8531745    3.9949659   -0.1829687 
H     1.1752486   -0.1423727    1.2697197 
H     0.8522473    1.2930012   -2.7127447 
H    -0.6858743    3.0196417   -1.9550398 
H    -0.3763121    1.5946265    2.0020904 
C     2.0836507   -0.5999254   -1.2393138 
C     1.3421451   -1.8245618   -1.8156344 
H     2.7369079   -0.9302460   -0.3994906 
H     2.7701211   -0.1872733   -2.0106635 
C     0.4190116   -2.4605758   -0.7730945 
O     0.9511464   -3.3939952    0.1079143 
O    -0.9110867   -2.0723289   -0.6120556 
H    -1.1685255   -1.3735880   -1.2940943 
N     0.6425276   -1.4411126   -3.0557462 
H     2.0999431   -2.6070805   -2.0552054 
H     1.3534314   -1.2332657   -3.7973540 
H     0.1083731   -2.2705772   -3.4094856 
