24
Energy =
C    -0.4082776    1.7541706    0.5770257 
C    -0.1516999    2.7181615   -0.3360671 
C     0.7443479    2.4797934   -1.3310746 
C     0.2251506    0.5558262    0.5083792 
C     1.1307058    0.3158509   -0.4788278 
C     1.3797313    1.2826344   -1.4050391 
O    -0.8232805    3.9405017   -0.2306561 
H    -0.5804059    4.6078918   -0.9546007 
H     2.0861391    1.1042337   -2.2123615 
H    -0.0052814   -0.2148028    1.2395457 
H    -1.1319696    1.9531180    1.3600594 
H     0.9519995    3.2445236   -2.0718271 
C     1.8216615   -1.0270541   -0.5717369 
C     0.9780648   -2.0409376   -1.3662081 
H     2.0278427   -1.4276230    0.4459651 
H     2.8163573   -0.9018592   -1.0574695 
C     1.8076608   -3.2611576   -1.7313553 
O     2.1514141   -4.1983554   -0.7642787 
O     2.2760814   -3.4199767   -3.0266166 
H     2.8123251   -4.2774409   -3.0719224 
N    -0.2251348   -2.3905749   -0.5861475 
H     0.6739560   -1.5779437   -2.3353195 
H    -0.8593276   -2.9679363   -1.1885753 
H     0.0488483   -3.0108640    0.2152666 
