24
Energy =
C    -0.3864566    1.8876479    0.4249275 
C     0.2245686    2.8420947   -0.3264427 
C     1.2764646    2.5061559   -1.1074042 
C     0.0591563    0.6062968    0.3932234 
C     1.1237274    0.2688387   -0.3853291 
C     1.7258744    1.2258731   -1.1435456 
O    -0.2086121    4.1719829   -0.3170066 
H    -1.0031691    4.3427927    0.2897787 
H     2.5679963    0.9747568   -1.7834780 
H    -0.4461847   -0.1506888    0.9878369 
H    -1.2352033    2.1452694    1.0489198 
H     1.7513159    3.2763913   -1.7053555 
C     1.6073379   -1.1633379   -0.4397949 
C     0.8684617   -1.9688965   -1.5268227 
H     1.4681332   -1.6576746    0.5483694 
H     2.7040319   -1.1812460   -0.6320025 
C     1.5548571   -3.3004092   -1.7818878 
O     1.8962223   -3.6692253   -3.0765138 
O     1.8275505   -4.1672441   -0.7315251 
H     2.2724646   -4.9980237   -1.1009852 
N    -0.5424324   -2.1406435   -1.1320314 
H     0.9220234   -1.4078953   -2.4901719 
H    -1.0579542   -2.6250177   -1.9061508 
H    -0.5892603   -2.7857404   -0.3061446 
