24
Energy =
C    -0.3507230    1.9661418   -0.0359239 
C     0.4119939    2.9228698   -0.6303697 
C     1.6068060    2.5817863   -1.1551864 
C     0.0734049    0.6670216    0.0326651 
C     1.2874872    0.3373698   -0.5050794 
C     2.0450288    1.3019716   -1.0972341 
O    -0.0103173    4.2598711   -0.7102182 
H    -0.9294024    4.3918501   -0.3074779 
H     3.0037927    1.0544677   -1.5380010 
H    -1.8521482   -1.3638803    1.5164302 
H    -1.3132030    2.2231410    0.3887597 
H     2.2085550    3.3451391   -1.6287972 
C     1.7699328   -1.0931901   -0.4858047 
C     0.7764486   -2.0517762   -1.1679423 
H     1.9221955   -1.3900068    0.5730236 
H     2.7497771   -1.1868253   -0.9980911 
C    -0.5072548   -2.1199532   -0.3641057 
O    -0.8489739   -3.2753283    0.3329729 
O    -1.2856328   -0.9771879   -0.1062835 
H    -0.9202590   -0.3214144    1.0806030 
N     0.5625696   -1.6577164   -2.5746456 
H     1.2167150   -3.0712810   -1.1458651 
H    -0.1451621   -2.2985445   -2.9990313 
H     0.0991681   -0.7129141   -2.5650823 
