24
Energy =
C     0.1167549    2.4128155   -1.0784519 
C    -0.1028868    2.6094874    0.2418165 
C     0.3383114    1.7030516    1.1437581 
C     0.7717385    1.3024450   -1.5029475 
C     1.2130221    0.3805898   -0.6014537 
C     0.9940252    0.5897606    0.7273707 
O    -0.7742654    3.7490597    0.6733547 
H    -1.7748635    3.5861241    0.7014533 
H     1.3423996   -0.1277962    1.4657438 
H     0.9420333    1.1582232   -2.5671312 
H    -0.2325341    3.1538990   -1.7891485 
H     0.1652412    1.8784263    2.2004567 
C     1.9381346   -0.8603312   -1.0777958 
C     0.9804056   -1.8798767   -1.7431257 
H     2.4825395   -1.3572168   -0.2429315 
H     2.7217990   -0.5496020   -1.8067903 
C     1.7796331   -2.9321954   -2.4943477 
O     2.4333287   -3.9502527   -1.8091113 
O     1.9268846   -2.8353129   -3.8708599 
H     2.4937800   -3.6099713   -4.1927321 
N     0.0331010   -2.4633245   -0.7595933 
H     0.3881015   -1.3654557   -2.5345711 
H     0.1647664   -3.5010091   -0.6717368 
H     0.1724490   -2.0820088    0.2038917 
