15
Energy = -233.4979678
C    -1.8890122    0.3076966    0.1896882 
C    -0.5368248   -0.3917839    0.2233459 
H    -1.9495401    1.0840487    0.9554767 
H    -2.6929806   -0.4096297    0.3577827 
H    -2.0513709    0.7848253   -0.7820883 
C     0.6231536    0.5711704   -0.0266696 
O    -0.5085160   -1.4938045   -0.6903477 
H    -0.3995729   -0.8600866    1.2026229 
C     1.9945694   -0.0848317    0.0980621 
H     0.5408279    1.4049235    0.6778155 
H     0.5027134    1.0046364   -1.0275701 
H     2.0850749   -0.9275936   -0.5876976 
H     2.1543406   -0.4634779    1.1107039 
H     2.7937018    0.6251627   -0.1227091 
H    -0.6665643   -1.1512556   -1.5784154 
