15
Energy = -233.4980853
C    -1.8473760    0.4048616    0.1276001 
C    -0.5210151   -0.3413521    0.0782977 
H    -1.9239986    1.0046630    1.0372948 
H    -2.6897728   -0.2921672    0.1179764 
H    -1.9417405    1.0666918   -0.7358148 
C     0.6752972    0.5999014    0.0700061 
O    -0.4281927   -1.1421328   -1.1063525 
H    -0.4438885   -0.9946002    0.9602686 
C     2.0182127   -0.1231618    0.1098762 
H     0.5856271    1.2717814    0.9286778 
H     0.6098019    1.2218102   -0.8283394 
H     2.8463560    0.5879215    0.0967328 
H     2.1243507   -0.7880136   -0.7470761 
H     2.1113624   -0.7265808    1.0167565 
H    -1.1750238   -1.7496226   -1.1259044 
