15
Energy = -233.4963864
C    -1.4752341   -0.2158411    0.7012937 
C    -0.0789939   -0.8045964    0.5375913 
H    -1.8031344    0.2879401   -0.2117899 
H    -1.4999968    0.5152535    1.5125351 
H    -2.1914532   -1.0068724    0.9256371 
C     1.0118887    0.2470972    0.3041813 
O    -0.0640598   -1.8118057   -0.4795771 
H     0.1770003   -1.3499285    1.4494477 
C     0.8522380    1.0690687   -0.9735769 
H     1.9723747   -0.2738744    0.2814270 
H     1.0355572    0.9152224    1.1710322 
H     0.8440720    0.4306580   -1.8605977 
H     1.6851525    1.7642160   -1.0900829 
H    -0.0666531    1.6583367   -0.9711533 
H    -0.3987582   -1.4248740   -1.2963676 
