15
Energy = -233.4966413
C    -1.5549328    0.1806930    0.2617419 
C    -0.3261964   -0.7005239    0.4505850 
H    -2.4682760   -0.4194906    0.2971223 
H    -1.5240247    0.6927686   -0.7005343 
H    -1.6217938    0.9300708    1.0538922 
C     0.9901217    0.0716788    0.4937679 
O    -0.2113962   -1.6581411   -0.6095381 
H    -0.4259133   -1.2362136    1.4049431 
C     1.2943168    0.8926837   -0.7578441 
H     1.7897564   -0.6559078    0.6552129 
H     0.9730096    0.7201282    1.3749345 
H     2.2892615    1.3364035   -0.6904697 
H     0.5815478    1.7083106   -0.8930714 
H     1.2629615    0.2644615   -1.6482858 
H    -1.0484420   -2.1269216   -0.6924564 
