15
Energy = -233.4973032
C    -1.5585150    0.0172657   -0.0647372 
C    -0.2442801   -0.7277716   -0.2572622 
H    -1.5751528    0.5576187    0.8832036 
H    -2.4010953   -0.6796476   -0.0576987 
H    -1.7108960    0.7310255   -0.8774283 
C     0.9700168    0.1889551   -0.3315590 
O    -0.2550004   -1.4694368   -1.4825711 
H    -0.1024226   -1.4224195    0.5841036 
C     1.2560624    0.9460541    0.9624687 
H     0.8215183    0.8898664   -1.1586365 
H     1.8305481   -0.4295870   -0.5976170 
H     0.4557912    1.6450985    1.2121785 
H     2.1782285    1.5228166    0.8759750 
H     1.3737418    0.2597067    1.8051875 
H    -1.0385449   -2.0295448   -1.4956070 
