13
Energy = 0.0639468821
C    -5.2887565    1.8884143   -0.2698748
C    -3.8489424    1.3956730   -0.0305798
H    -5.3001331    2.7565284   -0.9657276
H    -5.7451936    2.2057713    0.6941650
H    -5.9140812    1.0857462   -0.7140393
C    -2.9419491    2.5276545    0.4842316
N    -3.8986761    0.2495520    0.8965078
H    -3.4145163    1.0793032   -1.0080241
H    -4.6737153   -0.4059236    0.6337029
H    -3.0291197   -0.3228349    0.7877562
O    -3.3035428    3.8520610    0.2584504
O    -1.7026630    2.2817417    1.0763266
H    -1.5427226    1.2997962    1.2284806
