15
Energy =
C    -6.7083999    2.4835580    0.6020000 
C    -5.2552511    2.3047158    0.1738502 
H    -7.3280303    2.8438820   -0.2428192 
H    -6.7820188    3.1908118    1.4526816 
H    -7.1135139    1.5027091    0.9290441 
C    -4.5282459    3.5708409   -0.3438194 
O    -5.2045167    1.3012732   -0.8241387 
H    -4.6975188    1.9180282    1.0660454 
C    -5.3475380    4.8767894   -0.3733283 
H    -4.1364924    3.3571323   -1.3655777 
H    -3.6255144    3.7371417    0.2851312 
H    -4.7176931    5.7104234   -0.7536245 
H    -5.6923407    5.1516483    0.6468553 
H    -6.2259018    4.7798613   -1.0473826 
H    -5.8231613    1.4905069   -1.6075297 
