15
Energy =
C    -6.2915409    3.7710233    0.8683940 
C    -5.9672160    3.0947420   -0.4672199 
H    -5.6642243    3.4177194    1.7103343 
H    -7.3558622    3.6086540    1.1352061 
H    -6.1265688    4.8664361    0.7829196 
C    -4.8841479    1.9804487   -0.3525743 
O    -5.5877304    4.1159399   -1.3768011 
H    -6.9088298    2.6079764   -0.8335871 
C    -3.6352974    2.1232083   -1.2583426 
H    -5.3734440    1.0075521   -0.5812819 
H    -4.5330073    1.8694037    0.6958347 
H    -3.6646356    3.0124922   -1.9217621 
H    -3.5175681    1.2300055   -1.9073162 
H    -2.7215906    2.2198152   -0.6342792 
H    -6.1994661    4.1722336   -2.1845452 
