15
Energy =
C    -6.9440484    2.8025251   -0.3589233 
C    -5.5554209    2.2836483   -0.0043600 
H    -6.9064861    3.4381868   -1.2657128 
H    -7.3777357    3.3735852    0.4866828 
H    -7.6052228    1.9380658   -0.5775170 
C    -4.4731702    3.3550881    0.2824169 
O    -5.1162019    1.4492414   -1.0599157 
H    -5.6631764    1.6409946    0.9090126 
C    -4.9126374    4.8290657    0.1740497 
H    -3.6082900    3.1817966   -0.3995698 
H    -4.0710852    3.1811949    1.3058411 
H    -5.2462550    5.0690393   -0.8586729 
H    -4.0577086    5.4978568    0.4161164 
H    -5.7320066    5.0556921    0.8901941 
H    -5.0571337    1.9401439   -1.9478341 
