15
Energy =
C    -6.8504714    3.0875294    0.0811668 
C    -5.5677621    2.2781679   -0.0470314 
H    -6.9319166    3.7970526   -0.7693715 
H    -6.8715874    3.6561431    1.0329191 
H    -7.7277336    2.4096257    0.0534162 
C    -4.3374944    3.1792955    0.0511905 
O    -5.5510649    1.6939722   -1.3345980 
H    -5.4974009    1.4816819    0.7409241 
C    -4.0310144    3.6548508    1.4921544 
H    -4.4666762    4.0435251   -0.6396080 
H    -3.4737714    2.6047557   -0.3573244 
H    -3.0406249    3.2733669    1.8254809 
H    -4.7901800    3.3124504    2.2293841 
H    -3.9998438    4.7660681    1.5311124 
H    -6.2933447    1.0126678   -1.4621886 
