15
Energy =
C    -7.0151590    3.0581761    0.1956748 
C    -5.6621992    2.3719022   -0.0144423 
H    -7.4905762    2.6962719    1.1307870 
H    -7.6952779    2.8087404   -0.6468984 
H    -6.9517748    4.1627888    0.2442484 
C    -4.4682908    3.3643799   -0.0738174 
O    -5.7591445    1.6090574   -1.2080450 
H    -5.5066281    1.6797211    0.8536981 
C    -3.6461972    3.2845268   -1.3702416 
H    -3.7926802    3.1569543    0.7853072 
H    -4.8011362    4.4165722    0.0548702 
H    -4.3126394    3.4495930   -2.2472664 
H    -3.1872872    2.2784813   -1.4758699 
H    -2.8438425    4.0521408   -1.3711747 
H    -5.2978122    0.7087986   -1.1306490 
