15
Energy =
C    -6.8793722    2.8361615    0.5702166 
C    -5.9574414    2.5772050   -0.6498647 
H    -7.1245711    1.8709342    1.0597330 
H    -7.8422244    3.3047136    0.2921682 
H    -6.4486628    3.4817051    1.3502992 
C    -4.5346923    3.2002910   -0.6138908 
O    -6.5729523    3.0026213   -1.8615729 
H    -5.8338863    1.4662210   -0.7260971 
C    -4.1465160    4.0833995    0.5873331 
H    -4.4034609    3.7978312   -1.5478118 
H    -3.7908256    2.3763498   -0.6930121 
H    -4.1650042    3.4970958    1.5322685 
H    -4.8265294    4.9613431    0.6633100 
H    -3.1128193    4.4702296    0.4520196 
H    -7.5283686    3.3356718   -1.8054139 
