15
Energy =
C    -6.8829179    2.8431437    0.3661200 
C    -5.4871773    2.2860744    0.1322947 
H    -7.2434089    3.3447495   -0.5544787 
H    -6.8919679    3.5463940    1.2228258 
H    -7.5781254    2.0085611    0.5871193 
C    -4.3885413    3.3320076   -0.1816125 
O    -5.5659436    1.3915357   -0.9626039 
H    -5.1633727    1.7286279    1.0485613 
C    -4.8347430    4.8040693   -0.2961563 
H    -3.8951759    3.0322683   -1.1365172 
H    -3.5984487    3.2646104    0.5984576 
H    -3.9591877    5.4457541   -0.5357252 
H    -5.2688620    5.1661388    0.6600901 
H    -5.5766939    4.9260516   -1.1151157 
H    -5.8529433    0.4586768   -0.6836222 
