15
Energy =
C    -6.9554078    2.6117855    0.1892784 
C    -5.4576025    2.3271521    0.0355887 
H    -7.5250796    2.0849381   -0.6052886 
H    -7.2123011    3.6856260    0.1058912 
H    -7.3147665    2.2433810    1.1723484 
C    -4.6022063    3.6133437   -0.1426714 
O    -5.2891067    1.4525936   -1.0698966 
H    -5.0830572    1.8159598    0.9597532 
C    -3.7605048    3.6351874   -1.4288322 
H    -3.9134543    3.7042748    0.7264788 
H    -5.2249720    4.5329259   -0.1276153 
H    -3.1049253    2.7375666   -1.4728812 
H    -3.1361658    4.5520515   -1.4748559 
H    -4.4312873    3.6010392   -2.3155215 
H    -5.4389998    0.4808739   -0.8180368 
