15
Energy =
C    -6.9532978    2.8554334    0.2437259 
C    -5.5797491    2.2985301   -0.1110883 
H    -7.6927508    2.0296999    0.2797499 
H    -7.2848442    3.5713886   -0.5363183 
H    -6.9370203    3.3486602    1.2362845 
C    -4.4326404    3.3400072   -0.1624924 
O    -5.6752113    1.6967562   -1.3901007 
H    -5.2920799    1.5206816    0.6438814 
C    -4.8139255    4.8180085    0.0603211 
H    -3.9345810    3.2471638   -1.1568928 
H    -3.6607318    3.0597474    0.5875387 
H    -3.9098313    5.4590959   -0.0247496 
H    -5.2458930    4.9724645    1.0719292 
H    -5.5406443    5.1541690   -0.7110180 
H    -6.2324524    0.8479704   -1.3821808 
