15
Energy =
C    -6.8415556    3.2103880    0.0209864 
C    -5.6019112    2.3314782   -0.0209508 
H    -6.8520313    3.8882548   -0.8591920 
H    -6.8699667    3.8118425    0.9534700 
H    -7.7522739    2.5782241   -0.0189949 
C    -4.3410052    3.1922832    0.0830259 
O    -5.5789734    1.6682604   -1.2705713 
H    -5.6058958    1.5918084    0.8225435 
C    -3.0480593    2.3473360    0.1106108 
H    -4.3953340    3.8199555    1.0004548 
H    -4.3225128    3.8801537   -0.7939656 
H    -2.4473272    2.5424958   -0.8043350 
H    -3.2624053    1.2546392    0.1224279 
H    -2.4302841    2.5993682    0.9989521 
H    -6.3536183    1.0218025   -1.3811929 
