15
Energy =
C    -6.7801049    3.3715632   -0.0127852 
C    -5.6694410    2.3313250   -0.0504190 
H    -6.6785790    4.0589355   -0.8792246 
H    -6.7449561    3.9611713    0.9257281 
H    -7.7674004    2.8709523   -0.0803527 
C    -4.2977538    2.9869732    0.1034092 
O    -5.6937716    1.7174574   -1.3240405 
H    -5.7944337    1.5590354    0.7548417 
C    -3.9855824    3.4385842    1.5510227 
H    -4.2229283    3.8392020   -0.6100837 
H    -3.5378026    2.2483300   -0.2430653 
H    -3.7483829    4.5251462    1.5711331 
H    -3.1039243    2.8890868    1.9489405 
H    -4.8342873    3.2658290    2.2489354 
H    -6.5454378    1.1880135   -1.4847774 
