15
Energy =
C    -6.8926300    3.0606980    0.1327298 
C    -5.5690966    2.2941010    0.1439141 
H    -7.3931321    2.9781190    1.1195649 
H    -7.5738764    2.6262437   -0.6305172 
H    -6.7673221    4.1365942   -0.1085327 
C    -4.3873410    3.2013548   -0.2163435 
O    -5.6714689    1.2682090   -0.8276945 
H    -5.4281971    1.8557800    1.1659551 
C    -3.0148121    2.5347698    0.0316349 
H    -4.4458216    4.1399908    0.3794909 
H    -4.4956710    3.4805470   -1.2904185 
H    -2.4373490    3.1052575    0.7913231 
H    -2.4213976    2.5131907   -0.9089818 
H    -3.1068373    1.4872095    0.3917249 
H    -5.0662550    0.4802989   -0.6254012 
