15
Energy =
C    -6.9001842    2.5706228    0.2750662 
C    -5.4933997    2.1874220   -0.1470692 
H    -7.5730667    1.6979126    0.1561139 
H    -7.2722679    3.3829175   -0.3842662 
H    -6.9177493    2.9036872    1.3336586 
C    -4.5136283    3.3881911   -0.0105581 
O    -5.5707426    1.7138929   -1.4799708 
H    -5.1173313    1.3675317    0.5177359 
C    -3.7753930    3.8365286   -1.2964552 
H    -3.7524375    3.1225623    0.7567284 
H    -5.0413427    4.2728386    0.4131480 
H    -4.0318604    4.8897008   -1.5385029 
H    -4.0341034    3.2268139   -2.1889741 
H    -2.6757180    3.7687994   -1.1575228 
H    -5.8106732    0.7288423   -1.5288663 
