15
Energy =
C    -6.7287628    3.6633628   -0.4066565 
C    -5.7128332    2.5929684    0.0132992 
H    -7.6296496    3.5999883    0.2384382 
H    -7.0629336    3.4890496   -1.4505825 
H    -6.3361975    4.6972151   -0.3403452 
C    -4.3155228    3.1584771    0.3660673 
O    -5.5923923    1.6489260   -1.0381521 
H    -6.1301671    2.0468317    0.9005886 
C    -3.8433235    2.7079051    1.7596786 
H    -4.2921470    4.2692878    0.3218164 
H    -3.5715602    2.8103416   -0.3861570 
H    -4.5297662    3.0805347    2.5521257 
H    -2.8236941    3.1007781    1.9677370 
H    -3.8005864    1.5959969    1.8119626 
H    -5.1718800    2.0339417   -1.8788831 
