15
Energy =
C    -6.9233514    3.0282613   -0.1841763 
C    -5.6239171    2.3077421    0.1409541 
H    -6.8667563    3.4624295   -1.2041840 
H    -7.1332325    3.8280301    0.5533678 
H    -7.7647743    2.3060758   -0.1637182 
C    -4.4204110    3.2472791    0.0739394 
O    -5.4263400    1.3154465   -0.8464376 
H    -5.6592486    1.8408498    1.1600264 
C    -4.3547019    4.2417441    1.2501098 
H    -4.4274018    3.7773868   -0.9053401 
H    -3.5038737    2.6137882    0.0711936 
H    -4.3790441    3.7072364    2.2252633 
H    -5.1985702    4.9637361    1.2122746 
H    -3.4087923    4.8244091    1.1999609 
H    -6.0617457    0.5307233   -0.7390860 
