15
Energy =
C    -6.7783898    2.5443519    0.2224332 
C    -5.3286140    2.2432991   -0.1286540 
H    -7.4003892    1.6601057   -0.0298380 
H    -7.1523012    3.4114046   -0.3598484 
H    -6.8848104    2.7546545    1.3056744 
C    -4.4213307    3.4685151    0.0036553 
O    -5.2826352    1.7866141   -1.4670385 
H    -4.9466236    1.4224111    0.5352196 
C    -4.1551112    3.8588134    1.4691951 
H    -4.8632987    4.3259251   -0.5518367 
H    -3.4561531    3.2261604   -0.4999387 
H    -3.4359956    4.7063161    1.5119008 
H    -3.7179076    3.0076716    2.0368940 
H    -5.0918881    4.1843531    1.9717421 
H    -5.6449617    2.4638896   -2.1326117 
