15
Energy =
C    -6.7589248    2.4138366    0.5326005 
C    -5.2574129    2.4131345    0.1615508 
H    -7.3419104    1.6397493   -0.0035720 
H    -7.2636620    3.3777595    0.3246000 
H    -6.8747794    2.2102396    1.6178714 
C    -4.7808185    3.7867285   -0.3912323 
O    -4.9519745    1.3677591   -0.7593014 
H    -4.6813768    2.1961408    1.0984169 
C    -4.1765907    3.7211259   -1.8035268 
H    -4.0057106    4.1908591    0.2974183 
H    -5.5943220    4.5426755   -0.3986044 
H    -3.9198663    4.7370270   -2.1704767 
H    -4.8982551    3.2442365   -2.5029232 
H    -3.2583120    3.0936966   -1.7924654 
H    -5.7146098    0.7639541   -1.0423395 
