15
Energy =
C    -6.9081863    3.0316730    0.1019460 
C    -5.5845243    2.2850859    0.0619045 
H    -7.7299423    2.3208423    0.3238726 
H    -7.1110683    3.4882802   -0.8884556 
H    -6.8938579    3.8200835    0.8826570 
C    -4.3811195    3.2333929   -0.0315739 
O    -5.5799025    1.4328058   -1.0679742 
H    -5.4575542    1.6792016    0.9957309 
C    -4.3811141    4.1158677   -1.2923998 
H    -3.4648409    2.6010809   -0.0399282 
H    -4.3379828    3.8745599    0.8761461 
H    -3.4054798    4.6359332   -1.3956390 
H    -5.1832555    4.8812520   -1.2390657 
H    -4.5472196    3.4847341   -2.1958984 
H    -6.2146828    0.6482840   -0.9593668 
