15
Energy =
C    -6.9509735    2.8623359    0.0481080 
C    -5.5467011    2.2790596    0.0661509 
H    -7.6877532    2.0347833    0.0408364 
H    -7.1024201    3.4494651   -0.8800287 
H    -7.1313898    3.4924026    0.9424612 
C    -4.3879843    3.3069154    0.0576808 
O    -5.4153950    1.4578361   -1.0803429 
H    -5.4312170    1.6561585    0.9903278 
C    -4.7749121    4.7958818   -0.0535739 
H    -3.7094747    3.0492621   -0.7897540 
H    -3.7822698    3.1697490    0.9804946 
H    -5.4022187    5.1116375    0.8072169 
H    -5.3192575    4.9887233   -1.0037360 
H    -3.8583608    5.4247990   -0.0555597 
H    -5.6916369    0.4964940   -0.9077222 
