15
Energy =
C    -6.8716566    2.8377302   -0.2228302 
C    -5.5161923    2.2016461    0.0261034 
H    -7.6271793    2.0328255   -0.3299742 
H    -6.8629411    3.4130650   -1.1695042 
H    -7.1570746    3.5035568    0.6175370 
C    -4.4036776    3.2651178    0.0890960 
O    -5.2784120    1.2914005   -1.0313150 
H    -5.5700366    1.6439059    0.9970217 
C    -4.0237032    3.8719029   -1.2817344 
H    -3.5011480    2.7931956    0.5382613 
H    -4.7111603    4.0726862    0.7922834 
H    -4.0387864    4.9821758   -1.2398139 
H    -4.7152530    3.5427057   -2.0905407 
H    -3.0035600    3.5462408   -1.5788042 
H    -4.3552252    0.8725346   -0.9790365 
