15
Energy =
C    -6.9025303    2.9774758    0.0858604 
C    -5.5431240    2.2764467    0.0669076 
H    -7.4758757    2.6657832    0.9833277 
H    -7.5013338    2.6893080   -0.8040662 
H    -6.8133931    4.0840497    0.0977779 
C    -4.3788394    3.2761404    0.0172551 
O    -5.4916679    1.4151481   -1.0572771 
H    -5.4298307    1.6525449    0.9933606 
C    -3.0013499    2.5780265    0.0004301 
H    -4.4456361    3.9467131    0.9042461 
H    -4.4903288    3.9201256   -0.8848083 
H    -2.4728866    2.7902758   -0.9542631 
H    -3.0921955    1.4692823    0.0806140 
H    -2.3660546    2.9376456    0.8385520 
H    -5.4304661    1.9178165   -1.9375870 
