15
Energy =
C    -6.9655497    2.9093297   -0.0991761 
C    -5.6017471    2.2909128    0.1606244 
H    -7.2117222    3.6795586    0.6583191 
H    -7.7361236    2.1120952   -0.0515518 
H    -6.9916616    3.3340717   -1.1215687 
C    -4.4096818    3.3025758    0.1473206 
O    -5.4419830    1.2637360   -0.8103374 
H    -5.6282392    1.8049602    1.1696417 
C    -4.7498080    4.7799853   -0.1338120 
H    -3.6277868    2.9911762   -0.5777063 
H    -3.9079399    3.2512307    1.1400714 
H    -5.2091203    4.8980757   -1.1393696 
H    -3.8209523    5.3913807   -0.1158887 
H    -5.4330640    5.1895535    0.6409248 
H    -4.5693060    1.2424352   -1.3240592 
