15
Energy =
C    -7.0092724    2.9937022   -0.2297439 
C    -5.6648949    2.3119547   -0.0134820 
H    -7.2681964    3.6434684    0.6298279 
H    -7.8041115    2.2275832   -0.3366574 
H    -6.9827581    3.5868061   -1.1667820 
C    -4.4635452    3.2663099    0.2064736 
O    -5.3917963    1.5328947   -1.1639037 
H    -5.7295507    1.6407704    0.8833874 
C    -4.7394834    4.7812265    0.1067583 
H    -3.6760892    2.9970190   -0.5374046 
H    -4.0172139    3.0553014    1.2031839 
H    -5.1381380    5.0411209   -0.8983564 
H    -3.7943633    5.3479899    0.2523049 
H    -5.4560720    5.1099390    0.8891109 
H    -6.0117201    0.7332241   -1.2500181 
