15
Energy =
C    -6.8373800    2.3120365   -0.2265255 
C    -5.3441474    2.2557853    0.1151795 
H    -7.4292620    1.8583177    0.5947906 
H    -7.0341509    1.7179344   -1.1445921 
H    -7.2249907    3.3341085   -0.4034255 
C    -4.6848501    3.6673500    0.1566515 
O    -4.7264229    1.4058440   -0.8458639 
H    -5.2222036    1.7634128    1.1159328 
C    -4.0678780    3.9736219    1.5326505 
H    -5.4116321    4.4720695   -0.0902149 
H    -3.8899039    3.7702231   -0.6123972 
H    -4.8468721    3.9563937    2.3272574 
H    -3.5970609    4.9817367    1.5303072 
H    -3.2808068    3.2265386    1.7824563 
H    -3.9699557    1.7997804   -1.3929052 
