15
Energy =
C    -6.7470107    3.3053092    0.8246848 
C    -5.4217744    2.5908204    0.5997802 
H    -7.3225708    2.7652641    1.6056726 
H    -7.3509747    3.3006471   -0.1048095 
H    -6.5761195    4.3449405    1.1725146 
C    -4.4640876    3.1869066   -0.4674389 
O    -5.7008193    1.2425165    0.2689700 
H    -4.8844726    2.5870977    1.5847900 
C    -4.9033556    4.4522505   -1.2530312 
H    -4.2092840    2.3796765   -1.1936691 
H    -3.4933722    3.4037085    0.0333968 
H    -4.9130526    4.2389268   -2.3446995 
H    -4.1776639    5.2785262   -1.0847236 
H    -5.9029281    4.8484433   -0.9962889 
H    -6.2510095    1.1527801   -0.5806994 
