15
Energy =
C    -6.6854106    2.2732009    0.1140585 
C    -5.2125537    2.3621337   -0.2989463 
H    -7.0073406    3.1401786    0.7266008 
H    -6.8553090    1.3489243    0.7030828 
H    -7.3443311    2.2218206   -0.7778606 
C    -4.5505444    3.6796375    0.1158133 
O    -5.1247312    2.2344376   -1.7064281 
H    -4.6382903    1.5123928    0.1584411 
C    -4.2552125    3.7406746    1.6262510 
H    -5.1932073    4.5349923   -0.1923473 
H    -3.5964128    3.7742936   -0.4541521 
H    -3.5620548    2.9243148    1.9283371 
H    -5.1891855    3.6531641    2.2231832 
H    -3.7749089    4.7109494    1.8815725 
H    -5.5742364    2.9980757   -2.2041203 
