15
Energy =
C    -6.8987168    2.5683552    0.1368173 
C    -5.4275399    2.3070378   -0.2216210 
H    -7.1390416    3.6052942    0.4228472 
H    -7.2071680    1.9099228    0.9740777 
H    -7.5414299    2.3286200   -0.7360881 
C    -4.4120005    3.4698278   -0.0560450 
O    -5.3803905    1.8813128   -1.5741366 
H    -5.0563264    1.4750443    0.4318999 
C    -4.9531779    4.8479775    0.3657433 
H    -3.8727593    3.5870171   -1.0258148 
H    -3.6350970    3.1631947    0.6788481 
H    -5.4181417    4.7983971    1.3741761 
H    -5.6928043    5.2181525   -0.3785911 
H    -4.1217102    5.5844444    0.4112324 
H    -5.4285455    0.8716852   -1.6705491 
