15
Energy =
C    -7.0205606    2.8757886   -0.5940492 
C    -5.5820805    2.3299549   -0.3568527 
H    -7.7462789    2.2261372   -0.0595917 
H    -7.3109644    2.8320948   -1.6621118 
H    -7.2456581    3.9026836   -0.2761224 
C    -4.5380918    3.2055777    0.4019285 
O    -4.9700881    1.9247917   -1.5805980 
H    -5.7143258    1.3957723    0.2457671 
C    -4.8740132    4.6509380    0.8729470 
H    -3.6234725    3.2434905   -0.2420303 
H    -4.1936780    2.6203224    1.2857565 
H    -4.7183131    4.7411289    1.9693872 
H    -5.9022771    5.0022423    0.6653723 
H    -4.1956537    5.3770632    0.3752385 
H    -5.5475372    1.9294107   -2.4132921 
