15
Energy =
C    -6.5763207    3.3365457    1.0298324 
C    -5.2084537    3.8811023    0.5796604 
H    -6.4590587    2.6815738    1.9188962 
H    -7.1248980    2.7576427    0.2681374 
H    -7.2310127    4.1788953    1.3378681 
C    -4.7107148    3.5487884   -0.8551353 
O    -4.2304773    3.4496523    1.5109635 
H    -5.2567035    5.0006176    0.6593786 
C    -5.6334236    2.7135655   -1.7601366 
H    -3.7238299    3.0361759   -0.7813707 
H    -4.4877347    4.5067960   -1.3764601 
H    -5.8142163    1.7093224   -1.3181112 
H    -5.1538232    2.5618947   -2.7521153 
H    -6.6007177    3.2349720   -1.9313930 
H    -4.1147097    2.4390347    1.5129954 
