15
Energy =
C    -6.9908215    2.9444588    0.0190556 
C    -5.6067918    2.3081763    0.0871254 
H    -7.1598108    3.6123119    0.8880934 
H    -7.7581846    2.1424102    0.0376952 
H    -7.1147708    3.5112222   -0.9246257 
C    -4.3996534    3.2784232    0.0271303 
O    -5.5002755    1.3679196   -0.9662172 
H    -5.5521790    1.7390886    1.0522544 
C    -4.7247550    4.7803666   -0.0971250 
H    -3.7396430    2.9775996   -0.8195539 
H    -3.7824692    3.1256153    0.9409271 
H    -5.3274126    5.1313697    0.7684746 
H    -5.2722245    4.9921139   -1.0408830 
H    -3.7827780    5.3713572   -0.1142047 
H    -5.6121491    1.7913118   -1.8831798 
