15
Energy =
C    -6.8995658    2.8710635    0.0372572 
C    -5.5091159    2.2640883    0.0411230 
H    -7.0246942    3.5886749    0.8740803 
H    -7.6476369    2.0579373    0.1318370 
H    -7.0844371    3.3767643   -0.9314837 
C    -4.4068421    3.3354211    0.0233386 
O    -5.4041556    1.4398018   -1.1043648 
H    -5.4160948    1.6408643    0.9671780 
C    -4.4082516    4.2107209   -1.2425672 
H    -3.4256793    2.8163813    0.0976055 
H    -4.5028613    3.9807193    0.9249813 
H    -4.4554025    3.5727215   -2.1546586 
H    -3.4828480    4.8235445   -1.2856802 
H    -5.2803423    4.8978856   -1.2473762 
H    -4.5838786    0.8435252   -1.0728327 
