15
Energy =
C    -6.9086970    2.7579456    0.0491467 
C    -5.4616349    2.3008487   -0.0300206 
H    -7.1487513    3.3882617   -0.8302689 
H    -7.1059512    3.3061979    0.9921779 
H    -7.5698711    1.8686594    0.0039885 
C    -4.4005902    3.4311637   -0.0075181 
O    -5.3365848    1.5753200   -1.2392961 
H    -5.2960170    1.6124787    0.8400223 
C    -4.9235845    4.8810881   -0.0006585 
H    -3.7326802    3.3081871   -0.8915109 
H    -3.7519001    3.2874660    0.8849405 
H    -5.5178531    5.0871399   -0.9176946 
H    -4.0678052    5.5906602    0.0107471 
H    -5.5424891    5.0821514    0.8997619 
H    -4.5635414    0.9178972   -1.2197602 
