15
Energy =
C    -6.7628008    2.5067265    0.4447268 
C    -5.3361498    2.2341016   -0.0378538 
H    -6.9919708    1.8891431    1.3369293 
H    -7.4876197    2.2389370   -0.3537105 
H    -6.9332995    3.5724362    0.6998375 
C    -4.4956731    3.5113387   -0.1120728 
O    -5.4327176    1.6944462   -1.3435258 
H    -4.8578153    1.4879894    0.6517800 
C    -4.0871071    4.0308810    1.2788184 
H    -5.0584348    4.2851833   -0.6840439 
H    -3.5769826    3.2968402   -0.7029206 
H    -3.4736748    4.9528283    1.1740993 
H    -3.4801552    3.2735555    1.8222989 
H    -4.9782010    4.2817463    1.8945728 
H    -4.5859147    1.2132847   -1.6303630 
