15
Energy =
C    -6.8007432    2.7233448    0.2461373 
C    -5.3396329    2.2531401    0.2426051 
H    -7.4272406    2.1047679   -0.4293012 
H    -6.9028084    3.7847869   -0.0573523 
H    -7.2265467    2.6238043    1.2665787 
C    -4.3409028    3.3518228   -0.1550579 
O    -5.1865332    1.1213107   -0.5975040 
H    -5.0858490    1.9271486    1.2843756 
C    -4.4201296    3.7683155   -1.6342341 
H    -3.3163110    2.9685042    0.0524855 
H    -4.4967654    4.2402412    0.4966764 
H    -4.1123728    2.9212383   -2.2863310 
H    -3.7301772    4.6177621   -1.8240207 
H    -5.4486588    4.0790128   -1.9132721 
H    -5.6137930    1.2341580   -1.5102952 
