15
Energy =
C    -6.8384127    3.1042564    0.1836815 
C    -5.5602853    2.2949987    0.0447695 
H    -7.7093586    2.4202781    0.2469452 
H    -6.9707165    3.7507084   -0.7098142 
H    -6.8127033    3.7318329    1.0988418 
C    -4.3470858    3.2243955   -0.0124435 
O    -5.6281511    1.5844036   -1.1772503 
H    -5.4368901    1.5905237    0.9083664 
C    -3.0280545    2.4360175   -0.0047710 
H    -4.3607357    3.9236384    0.8529057 
H    -4.4168465    3.8271889   -0.9471727 
H    -2.9137699    1.8663228    0.9423363 
H    -2.1664980    3.1289828   -0.1115415 
H    -3.0136854    1.7168994   -0.8568302 
H    -6.3129135    0.8357604   -1.1492106 
