15
Energy =
C    -6.8460896    2.6081295    0.5890426 
C    -5.4263263    2.1613840    0.2816102 
H    -6.8521295    3.3489436    1.4154864 
H    -7.4461540    1.7261086    0.8980936 
H    -7.3216882    3.0541004   -0.3083880 
C    -4.5565249    3.3338824   -0.1847179 
O    -5.4741611    1.1633446   -0.7217453 
H    -4.9797252    1.7162977    1.2087660 
C    -3.1010353    2.9067065   -0.4737681 
H    -4.5627874    4.1220546    0.6014185 
H    -5.0125970    3.7785077   -1.0977682 
H    -2.8640544    3.0463719   -1.5506308 
H    -2.9292650    1.8293047   -0.2422726 
H    -2.3868491    3.5117257    0.1251728 
H    -5.9205013    1.4770400   -1.5776555 
