15
Energy =
C    -6.6987013    2.9557740    0.9855353 
C    -5.4212805    2.3868557    0.3182899 
H    -6.9773000    3.9765866    0.7119699 
H    -6.5695531    2.9566834    2.0882057 
H    -7.5981555    2.3461223    0.7765832 
C    -4.5766288    3.2982223   -0.6241329 
O    -5.7112218    1.1930736   -0.4048186 
H    -4.7461749    2.0837959    1.1610103 
C    -4.9965328    4.7486658   -0.9930551 
H    -4.4367850    2.7310072   -1.5755021 
H    -3.5467105    3.3417509   -0.2042143 
H    -5.9237009    5.1357814   -0.5520403 
H    -5.1256536    4.8334265   -2.0947808 
H    -4.1913581    5.4596084   -0.7050302 
H    -6.6480539    0.8139649   -0.3295372 
