15
Energy =
C    -6.7628441    3.7491528   -0.2975977 
C    -5.8531508    2.5957309    0.0803387 
H    -6.4640328    4.1488319   -1.2890477 
H    -6.7218051    4.5511869    0.4681160 
H    -7.8047777    3.3775196   -0.3844903 
C    -4.3824870    3.0502686    0.1977106 
O    -5.9586405    1.6443063   -0.9606893 
H    -6.2525543    2.1607740    1.0316250 
C    -3.7555108    2.7876818    1.5894597 
H    -4.2799087    4.1297260   -0.0577229 
H    -3.7901832    2.5248337   -0.5878822 
H    -2.8781440    2.1099015    1.4956561 
H    -4.4578861    2.3214862    2.3136582 
H    -3.3993031    3.7406697    2.0398158 
H    -5.6710308    0.7184247   -0.6590744 
