15
Energy =
C    -6.9217621    2.4466893    0.1448251 
C    -5.4060726    2.2933589   -0.0231651 
H    -7.2561698    1.9725845    1.0905452 
H    -7.4420992    1.9333180   -0.6922658 
H    -7.2692532    3.4981740    0.1418368 
C    -4.6637245    3.6564148   -0.1208450 
O    -5.1973577    1.5017343   -1.1819357 
H    -5.0290398    1.7327226    0.8732488 
C    -3.8526640    3.8564481   -1.4137664 
H    -3.9697182    3.7424330    0.7449950 
H    -5.3641528    4.5139014   -0.0209702 
H    -3.4426348    4.8879573   -1.4635518 
H    -4.5048066    3.6875291   -2.3017342 
H    -3.0069811    3.1379251   -1.4597758 
H    -4.2863041    1.0551107   -1.1813164 
