15
Energy =
C    -6.8964715    2.8979436    0.3288821 
C    -5.4977960    2.3603866    0.0638879 
H    -7.5925630    2.0447568    0.4723564 
H    -7.2490572    3.4963679   -0.5367395 
H    -6.9047930    3.5294811    1.2416080 
C    -4.4788182    3.4975677   -0.2130246 
O    -5.5718091    1.4250484   -0.9988802 
H    -5.1679433    1.7992830    0.9771927 
C    -3.7889782    3.4359784   -1.5865327 
H    -3.6900189    3.4542823    0.5711184 
H    -4.9597052    4.4959581   -0.1037678 
H    -2.9983276    4.2135545   -1.6567647 
H    -4.5240701    3.6117204   -2.4003605 
H    -3.3176060    2.4386545   -1.7381855 
H    -5.9966765    1.8103650   -1.8362898 
