15
Energy =
C    -6.7639443    3.2384844   -0.7172889 
C    -5.9394702    2.9246014    0.5544769 
H    -7.6445474    2.5783179   -0.8428477 
H    -6.1790534    3.1629926   -1.6552858 
H    -7.1489331    4.2785797   -0.6613036 
C    -4.4710080    2.5565144    0.2317112 
O    -6.5050176    1.8383781    1.2822273 
H    -5.9921096    3.8267217    1.2160060 
C    -3.4246109    3.4216430    0.9801571 
H    -4.2567100    2.5932456   -0.8572542 
H    -4.3242338    1.4840132    0.5032780 
H    -2.7976264    2.7804470    1.6384058 
H    -3.8730607    4.2055239    1.6264312 
H    -2.7488931    3.9296090    0.2578569 
H    -7.3611842    1.4325359    0.9222582 
