15
Energy =
C    -6.8612672    2.6298165   -0.0128379 
C    -5.3848648    2.2805892    0.0403753 
H    -7.0706393    3.2389841   -0.9157549 
H    -7.1805988    3.1734298    0.8984631 
H    -7.4490464    1.6927779   -0.0961493 
C    -4.4984378    3.5269315   -0.0020780 
O    -5.1143593    1.5082527   -1.1125009 
H    -5.1937611    1.6803441    0.9682000 
C    -4.5655128    4.3604053    1.2910204 
H    -4.7741521    4.1392331   -0.8915573 
H    -3.4477902    3.1982423   -0.1654584 
H    -3.8259141    5.1898950    1.2457114 
H    -4.3288200    3.7357997    2.1805146 
H    -5.5718169    4.8131532    1.4247799 
H    -4.2667453    0.9573249   -1.0195757 
