15
Energy =
C    -7.0228176    2.9721333   -0.0481862 
C    -5.6287032    2.3936144    0.2159384 
H    -7.5166132    2.4130930   -0.8715213 
H    -7.0117719    4.0392377   -0.3434717 
H    -7.6539547    2.8724039    0.8588997 
C    -4.4895687    3.4190497    0.0270635 
O    -5.4176692    1.3361340   -0.7044610 
H    -5.5927370    1.9927042    1.2637635 
C    -3.5903863    3.5375640    1.2725533 
H    -4.8714083    4.4273819   -0.2397125 
H    -3.8716998    3.0989615   -0.8454707 
H    -4.1755455    3.8922860    2.1498413 
H    -2.7674693    4.2618816    1.0850015 
H    -3.1336044    2.5517645    1.5154579 
H    -5.6646250    0.4293581   -0.3206174 
