15
Energy =
C    -6.8808566    2.7239557   -0.2542042 
C    -5.4122747    2.3233209   -0.4001858 
H    -7.0441300    3.4639116    0.5574732 
H    -7.5009012    1.8291929   -0.0421950 
H    -7.2455887    3.1838559   -1.1972065 
C    -4.5345286    2.9974625    0.6577186 
O    -4.9644300    2.7422990   -1.6766645 
H    -5.2972702    1.2138249   -0.2872056 
C    -3.0666221    2.5163474    0.6124308 
H    -4.9580809    2.7997005    1.6677672 
H    -4.5788505    4.0972092    0.4807764 
H    -2.3961802    3.3624259    0.3460642 
H    -2.9077560    1.7267472   -0.1558529 
H    -2.7521962    2.1159657    1.6001380 
H    -5.1415950    2.0470238   -2.3939606 
