15
Energy =
C    -6.8178338    3.4532359   -0.4617669 
C    -5.7734256    2.4847535    0.0599782 
H    -6.5063151    3.8355903   -1.4561583 
H    -6.9630374    4.2958826    0.2455294 
H    -7.7792493    2.9152409   -0.5942848 
C    -4.4053582    3.1752288    0.2464923 
O    -5.6463078    1.4687167   -0.9155852 
H    -6.1752881    2.0487118    1.0098802 
C    -3.8592853    3.1010688    1.6941472 
H    -4.4513702    4.2397556   -0.0788691 
H    -3.6774538    2.7052117   -0.4559607 
H    -3.6929255    4.1243622    2.0979843 
H    -2.8824671    2.5685622    1.7113016 
H    -4.5364095    2.5729349    2.3997289 
H    -5.2394317    0.6216902   -0.5309057 
