15
Energy =
C    -6.8509624    3.1823550    0.2256969 
C    -5.6420507    2.2753815    0.0453481 
H    -6.7338973    3.8329233    1.1159110 
H    -7.7663199    2.5691020    0.3520434 
H    -6.9796024    3.8183343   -0.6756878 
C    -4.3549689    3.0917753   -0.0630599 
O    -5.7978957    1.5845535   -1.1783672 
H    -5.5383530    1.5453319    0.8918913 
C    -3.8681944    3.6643446    1.2904419 
H    -4.5030151    3.9013641   -0.8137243 
H    -3.5769367    2.4247554   -0.5021658 
H    -2.8736425    3.2426618    1.5561919 
H    -4.5643923    3.4405192    2.1284848 
H    -3.7637308    4.7697797    1.2241750 
H    -6.5936591    0.9535831   -1.1701778 
