15
Energy =
C    -6.4798284    2.9396546   -1.2695017 
C    -6.1139436    2.5524917    0.1588965 
H    -7.2091868    2.2045026   -1.6697508 
H    -5.5839895    2.9196476   -1.9200688 
H    -6.9455124    3.9453453   -1.2968749 
C    -5.0781900    3.4577944    0.8728591 
O    -5.6363776    1.2198120    0.1479313 
H    -7.0626992    2.5641528    0.7570092 
C    -4.5190071    4.6437334    0.0606274 
H    -4.2296916    2.8238578    1.2233069 
H    -5.5435812    3.8553485    1.8035504 
H    -5.3320723    5.3393567   -0.2416957 
H    -3.9774440    4.2882453   -0.8429304 
H    -3.7970915    5.2194038    0.6806363 
H    -4.8148196    1.1008529   -0.4378260 
