15
Energy =
C    -6.8710897    3.0321424    0.2719378 
C    -5.5272833    2.3118145    0.1287919 
H    -7.2712880    2.8898861    1.2968342 
H    -7.6133331    2.6247132   -0.4474283 
H    -6.7965000    4.1226249    0.0765493 
C    -4.4086921    3.2929432   -0.2292289 
O    -5.6355519    1.3708678   -0.9244664 
H    -5.2459710    1.7954640    1.0847982 
C    -3.0275026    2.6178170   -0.2086386 
H    -4.4086788    4.1445836    0.4869016 
H    -4.6192470    3.6909856   -1.2488734 
H    -2.7775768    2.2648192    0.8147533 
H    -2.2427753    3.3306684   -0.5413813 
H    -3.0227045    1.7439848   -0.8999294 
H    -6.2016410    0.5697082   -0.6644211 
