15
Energy =
C    -6.8340244    2.4120437    0.2801350 
C    -5.3424130    2.2882359    0.0264411 
H    -7.3172633    2.8682186   -0.6101575 
H    -7.0374019    3.0243655    1.1842039 
H    -7.2652844    1.3989849    0.4146616 
C    -4.6945180    3.6818070   -0.1892791 
O    -5.2007845    1.4544703   -1.1121831 
H    -4.8908273    1.7847998    0.9231426 
C    -3.9757687    3.8601729   -1.5379213 
H    -3.9603845    3.8593826    0.6268902 
H    -5.4545056    4.4898238   -0.0923998 
H    -3.1036288    3.1767155   -1.6098297 
H    -3.6146341    4.9050328   -1.6543135 
H    -4.6739259    3.6307921   -2.3749098 
H    -4.2670519    1.0615951   -1.1820000 
