24
Energy =
C     0.1640261    2.5312876   -1.5231728 
C    -0.2864947    2.7073369   -0.2602911 
C    -0.0200216    1.7810225    0.6882823 
C     0.8914897    1.4313709   -1.8408782 
C     1.1673999    0.4918800   -0.8913833 
C     0.7087865    0.6784508    0.3791310 
O    -1.0267098    3.8405431    0.0628747 
H    -0.4168279    4.6007674    0.3420259 
H     0.9145830   -0.0557335    1.1542604 
H     1.2505419    1.3123940   -2.8591703 
H    -0.0655101    3.2760760   -2.2765860 
H    -0.3987342    1.9268238    1.6945009 
C     1.9842675   -0.7405701   -1.2379821 
C     1.1284258   -2.0071573   -1.5103979 
H     2.6881497   -0.9535149   -0.4012090 
H     2.6261208   -0.5403537   -2.1241803 
C     0.2919920   -2.4103273   -0.3070854 
O    -1.0327235   -2.0060258   -0.1717035 
O     0.8843054   -3.1361906    0.7207953 
H     0.1883403   -3.3189218    1.4326394 
N     0.3053507   -1.8709103   -2.7323870 
H     1.8384533   -2.8574633   -1.6401752 
H     0.4156998   -0.9403844   -3.1945538 
H     0.5840369   -2.5945899   -3.4356552 
