24
Energy =
C     1.1329774    1.7559803    0.9470585 
C     1.3216379    2.7460136    0.0338226 
C     1.5465062    2.4269990   -1.2610496 
C     1.1742464    0.4552731    0.5616497 
C     1.4118664    0.1330573   -0.7397369 
C     1.5905994    1.1285447   -1.6515103 
O     1.2896061    4.0957831    0.3986669 
H     1.0974356    4.2541178    1.3818940 
H     1.7597100    0.8914816   -2.6994728 
H     1.0136108   -0.3252554    1.3011366 
H     0.9458255    2.0024296    1.9867167 
H     1.6853968    3.2251535   -1.9819918 
C     1.4334476   -1.3167242   -1.1755157 
C     0.0164723   -1.8425791   -1.5077409 
H     1.8780116   -1.9367379   -0.3654183 
H     2.0912420   -1.4434073   -2.0658546 
C    -0.6119397   -1.0597618   -2.6549368 
O    -1.6636671   -0.1848202   -2.4114640 
O    -0.1172987   -1.1852809   -3.9480137 
H    -0.6621207   -0.5944606   -4.5633776 
N     0.0496417   -3.3057649   -1.7591188 
H    -0.6473594   -1.6599248   -0.6310940 
H    -0.2851540   -3.5263128   -2.7301442 
H     1.0204638   -3.6950698   -1.7152017 
