24
Energy =
C     1.0428709    2.4023676    0.1325145 
C    -0.1456141    2.3441844    0.7907043 
C    -0.7771334    1.1559765    0.9255921 
C     1.5931307    1.2739255   -0.3826409 
C     0.9617459    0.0760737   -0.2405363 
C    -0.2318665    0.0237493    0.4108540 
O    -0.7402121    3.4866512    1.3362228 
H    -0.2115825    4.3385565    1.1824051 
H    -0.7566477   -0.9216842    0.5223591 
H     2.5395032    1.3377911   -0.9158382 
H     1.5544945    3.3511721    0.0128531 
H    -1.7268528    1.1274567    1.4488315 
C     1.5596367   -1.1788275   -0.8364959 
C     1.0323375   -1.4462083   -2.2598582 
H     1.3236993   -2.0529076   -0.1891855 
H     2.6713732   -1.1077901   -0.8551540 
C     1.4649873   -0.3736224   -3.2472290 
O     2.8074837   -0.0368273   -3.3884224 
O     0.5148888    0.2566542   -4.0390755 
H     0.9774636    0.9308080   -4.6357355 
N     1.4694543   -2.7928621   -2.6706387 
H    -0.0830706   -1.4075870   -2.2498260 
H     1.0632656   -3.0135988   -3.6123503 
H     2.5114253   -2.7945867   -2.7968643 
