24
Energy =
C     0.7649910    2.0045314    0.7495940 
C     0.4350739    2.8698681   -0.2461439 
C     0.5620701    2.4842664   -1.5359747 
C     1.2224189    0.7623261    0.4501118 
C     1.3599243    0.3764109   -0.8480717 
C     1.0183239    1.2429041   -1.8413806 
O    -0.0381897    4.1572376    0.0268005 
H    -0.1108103    4.3682348    1.0161908 
H     1.1053284    0.9479073   -2.8841609 
H     1.4686278    0.0755386    1.2562178 
H     0.6591856    2.3017782    1.7872856 
H     0.2896821    3.1828410   -2.3197432 
C     1.8487248   -1.0152429   -1.1845922 
C     0.6790112   -2.0077871   -1.3192974 
H     2.5550764   -1.3778219   -0.4042127 
H     2.4314954   -0.9853292   -2.1331928 
C     1.1534086   -3.3113307   -1.9409177 
O     0.9272210   -3.5616469   -3.2875037 
O     1.8695606   -4.2340605   -1.1902601 
H     2.1063888   -5.0172729   -1.7865542 
N     0.0545620   -2.2087370    0.0021289 
H    -0.0751166   -1.5871477   -2.0256383 
H    -0.7997857   -2.8036022   -0.1156007 
H     0.7062081   -2.7660857    0.6076779 
