24
Energy =
C    -0.6111904    0.7135225    1.1963765 
C    -1.0978619    1.8233014    0.5949422 
C    -0.5428462    2.2687850   -0.5554007 
C     0.4433394    0.0512545    0.6551931 
C     1.0161172    0.5008485   -0.4975328 
C     0.5095387    1.6104179   -1.1044024 
O    -2.1786885    2.4986413    1.1517039 
H    -1.8628606    3.2013474    1.8110833 
H     0.9361632    1.9700894   -2.0372868 
H     0.8139036   -0.8521700    1.1383135 
H    -1.0823360    0.3556044    2.1059483 
H    -0.9542512    3.1495282   -1.0375997 
C     2.1743430   -0.2525225   -1.1215273 
C     1.7041661   -1.3787541   -2.0666460 
H     2.8166408   -0.6882428   -0.3223840 
H     2.8284866    0.4497561   -1.6832798 
C     0.8893334   -2.4232881   -1.3057796 
O     1.5355500   -3.2253610   -0.3782118 
O    -0.4931935   -2.5268016   -1.4108814 
H    -0.8087041   -1.9147638   -2.1477917 
N     0.9752974   -0.7997636   -3.2072207 
H     2.6035269   -1.9163630   -2.4464835 
H     1.6348996   -0.2059066   -3.7678106 
H     0.6961333   -1.5821941   -3.8416694 
