24
Energy =
C    -0.3498236    2.0880654    0.2597132 
C    -0.3172607    2.6878201   -0.9599746 
C     0.4177785    2.1407618   -1.9543845 
C     0.3510260    0.9465673    0.4775578 
C     1.0907204    0.3931924   -0.5237071 
C     1.1205078    0.9991282   -1.7426795 
O    -1.0269837    3.8648757   -1.2179963 
H    -1.5565750    4.2116013   -0.4253622 
H     1.7065917    0.5759877   -2.5545686 
H     0.3146625    0.4810250    1.4590533 
H    -0.9362205    2.5199236    1.0634826 
H     0.4351443    2.6304497   -2.9221109 
C     1.8699982   -0.8846546   -0.2926655 
C     1.1927839   -2.1167888   -0.9551535 
H     2.0115931   -1.0815491    0.7943662 
H     2.8970146   -0.7474242   -0.7038001 
C     2.1148013   -3.3402887   -0.9766729 
O     3.4161217   -3.2478086   -0.4987038 
O     1.7076728   -4.5401944   -1.5534551 
H     0.7183510   -4.5150487   -1.7515321 
N    -0.1243847   -2.4022492   -0.3385277 
H     1.0247277   -1.8864679   -2.0298918 
H    -0.1879109   -3.3933920   -0.0134582 
H    -0.2998756   -1.8224139    0.5163724 
