24
Energy =
C    -0.4056645    1.7037431    0.8197384 
C     0.2946494    2.7247618    0.2574057 
C     1.3587113    2.4507737   -0.5310400 
C    -0.0381629    0.4174751    0.5916618 
C     1.0354064    0.1409691   -0.1991510 
C     1.7308198    1.1663325   -0.7628352 
O    -0.0575399    4.0612289    0.4714756 
H    -0.8641504    4.1844705    1.0739113 
H     2.5875782    0.9663075   -1.4017429 
H    -0.6114104   -0.3875425    1.0446973 
H    -1.2617292    1.9134275    1.4519088 
H     1.9074006    3.2745171   -0.9746902 
C     1.4408152   -1.2906613   -0.4703341 
C     0.9778634   -1.7767949   -1.8655495 
H     1.0400115   -1.9726194    0.3139940 
H     2.5498596   -1.3666972   -0.3953500 
C     1.6133167   -3.1118829   -2.2084706 
O     2.5544962   -3.1941426   -3.2285519 
O     1.3186712   -4.2486916   -1.4647141 
H     1.8309232   -5.0289929   -1.8539738 
N    -0.4918592   -1.8588228   -1.9306914 
H     1.3371003   -1.0689949   -2.6482917 
H    -0.8492720   -2.4758133   -1.1624080 
H    -0.9105671   -0.9082174   -1.8023509 
