24
Energy =
C    -0.3524738    1.5866170    0.8719362 
C    -0.1506819    2.6635986    0.0782801 
C     0.6743996    2.5720479   -0.9900516 
C     0.2806346    0.4158783    0.6064722 
C     1.1239583    0.3198675   -0.4586551 
C     1.3101532    1.4039092   -1.2627002 
O    -0.8002990    3.8628947    0.3538249 
H    -0.2466468    4.4332644    0.9832949 
H     1.9637293    1.3427198   -2.1293725 
H     0.1000553   -0.4468144    1.2427213 
H    -1.0311275    1.6684837    1.7136237 
H     0.8153053    3.4385115   -1.6276374 
C     1.8114569   -0.9901676   -0.7729005 
C     0.9441510   -1.8791231   -1.6861034 
H     2.0464779   -1.5400255    0.1665165 
H     2.7936673   -0.7903472   -1.2579440 
C     1.7498964   -3.0416715   -2.2412295 
O     1.7843965   -3.2723807   -3.6102264 
O     2.4421603   -3.8921043   -1.3887994 
H     2.9038568   -4.6033201   -1.9416632 
N    -0.2422682   -2.3357756   -0.9378405 
H     0.6212127   -1.2803872   -2.5710076 
H    -0.8673639   -2.8758962   -1.5836573 
H     0.0617332   -3.0128513   -0.1965280 
