24
Energy =
C     0.5755521    1.3330257    1.5012455 
C     0.5128613    2.5054783    0.8286081 
C     0.8732788    2.5583609   -0.4742420 
C     0.9927223    0.2057537    0.8702148 
C     1.3566010    0.2515103   -0.4416784 
C     1.2914475    1.4356177   -1.1120425 
O     0.0840188    3.6586673    1.4785185 
H    -0.9230982    3.7550070    1.4113301 
H     1.5765089    1.4924305   -2.1598407 
H     1.0337040   -0.7305830    1.4215292 
H     0.2928499    1.3080133    2.5480359 
H     0.8274561    3.5061949   -1.0001227 
C     1.8107107   -1.0021129   -1.1558654 
C     0.6870579   -1.6228718   -2.0152957 
H     2.1764533   -1.7614264   -0.4274187 
H     2.6877179   -0.7527252   -1.7965070 
C     1.2485214   -2.6694720   -2.9648556 
O     0.7947028   -2.7293227   -4.2747236 
O     2.1660204   -3.6131137   -2.5239251 
H     1.6549638   -4.3653520   -2.0862741 
N    -0.3401284   -2.2051850   -1.1344234 
H     0.2338493   -0.8351729   -2.6630390 
H    -0.8250179   -1.4320353   -0.6208908 
H    -1.0830271   -2.6475125   -1.7277371 
