24
Energy =
C     0.1353965    1.9004709    0.9336123 
C     0.1269433    2.8565555   -0.0334247 
C     0.7643296    2.6287050   -1.2041450 
C     0.7801256    0.7243774    0.7247086 
C     1.4245736    0.4954765   -0.4529722 
C     1.4100856    1.4546672   -1.4185804 
O    -0.5289286    4.0781904    0.1487698 
H    -0.9775203    4.1765199    1.0530922 
H     1.9166599    1.2887796   -2.3660230 
H     0.7751558   -0.0317563    1.5055796 
H    -0.3741420    2.0743138    1.8752728 
H     0.7501595    3.3992573   -1.9672408 
C     2.1303338   -0.8200658   -0.6998966 
C     1.2941490   -1.7825949   -1.5817591 
H     2.3923928   -1.3157915    0.2629615 
H     3.1018966   -0.6112140   -1.2030336 
C     2.0860757   -3.0232686   -1.9954018 
O     3.2469130   -3.3764105   -1.3144637 
O     1.6519723   -3.8352164   -3.0428824 
H     0.7379629   -3.5559073   -3.3702608 
N     0.0435964   -2.1635153   -0.9012347 
H     1.0475134   -1.2630694   -2.5357337 
H     0.2511838   -2.5359112    0.0565158 
H    -0.5740649   -1.3248913   -0.7909174 
