24
Energy =
C     0.2666487    2.5284515   -1.4420903 
C    -0.1159491    2.7345888   -0.1539489 
C     0.1341249    1.7865867    0.7774202 
C     0.8973968    1.3791715   -1.7906196 
C     1.1549335    0.4243721   -0.8529856 
C     0.7679577    0.6365382    0.4355075 
O    -0.7646621    3.9097292    0.2386967 
H    -0.9328492    4.5639314   -0.5177620 
H     0.9506497   -0.1164107    1.1989223 
H     1.1917903    1.2292175   -2.8258106 
H     0.0679386    3.2813816   -2.1967593 
H    -0.1847167    1.9583261    1.7999967 
C     1.8486736   -0.8669033   -1.2420663 
C     0.8655303   -2.0272624   -1.5382191 
H     2.5445189   -1.1696338   -0.4272649 
H     2.4928270   -0.6974925   -2.1333147 
C     0.0851464   -2.4512173   -0.2911882 
O    -1.1541724   -1.8843092   -0.0152852 
O     0.6394894   -3.3257713    0.6452019 
H     1.5426356   -3.6730308    0.3603264 
N    -0.0192016   -1.6966001   -2.6706345 
H     1.4659360   -2.9159319   -1.8354107 
H    -0.7081171   -0.9564664   -2.3891214 
H     0.5365642   -1.3283569   -3.4771749 
