24
Energy =
C     0.5827545    2.0712711    0.7045187 
C     0.6078784    2.9630499   -0.3129209 
C     0.9985405    2.5707925   -1.5469605 
C     0.9426876    0.7799919    0.4894893 
C     1.3403905    0.3788692   -0.7499754 
C     1.3612503    1.2819941   -1.7698020 
O     0.2371834    4.2851444   -0.0886968 
H    -0.7640721    4.4009374   -0.2001876 
H     1.6596839    0.9782122   -2.7718247 
H     0.9156267    0.0740164    1.3157057 
H     0.2766662    2.4034906    1.6905185 
H     1.0164191    3.2955520   -2.3544110 
C     1.7188991   -1.0643952   -0.9998392 
C     0.5009803   -1.9285766   -1.3652135 
H     2.2120751   -1.4857587   -0.0955839 
H     2.4771609   -1.1376293   -1.8141087 
C    -0.1074564   -1.4853556   -2.7021468 
O     0.4651293   -1.9058864   -3.8952634 
O    -1.1946995   -0.6127398   -2.7590904 
H    -1.4646854   -0.2709642   -1.8501382 
N     0.9485201   -3.3376666   -1.3702754 
H    -0.2892439   -1.7926102   -0.5908300 
H     0.5474313   -3.8454446   -0.5471505 
H     0.6197167   -3.8472986   -2.2280527 
