24
Energy =
C    -0.4332950    1.9300425   -0.2657086 
C     0.0939408    2.2524119    0.9389288 
C     1.2377645    1.6577634    1.3593634 
C     0.1853343    1.0049657   -1.0390323 
C     1.3159709    0.3900499   -0.6253005 
C     1.8536692    0.7300794    0.5782189 
O    -0.5322714    3.2006909    1.7414629 
H    -1.2161680    2.7624887    2.3486918 
H     2.7776660    0.2709884    0.9202346 
H    -0.1854553    0.6257165   -2.0894899 
H    -1.3420184    2.4164321   -0.6030884 
H     1.6594619    1.9372129    2.3192535 
C     2.0027486   -0.5948148   -1.5580773 
C     1.0357197   -1.5789878   -2.2833374 
H     2.7388663   -1.1980462   -0.9784691 
H     2.5871727   -0.0241110   -2.3138540 
C     0.1213397   -0.9093768   -3.3507448 
O    -0.5414216    0.2837978   -3.0686078 
O    -0.1621049   -1.4968041   -4.5796149 
H     0.2090122   -2.4262267   -4.6688956 
N     1.8651312   -2.6738658   -2.8151767 
H     0.3348830   -2.0019010   -1.5256087 
H     1.2703089   -3.5044659   -3.0408730 
H     2.3848884   -2.3655536   -3.6738986 
