24
Energy =
C    -0.8487427    1.7341100   -1.8248913 
C    -0.9717788    2.3756108   -0.6398652 
C    -0.1313288    2.0825905    0.3788772 
C     0.1131435    0.7913099   -1.9937054 
C     0.9655511    0.4936705   -0.9733487 
C     0.8329800    1.1411168    0.2175491 
O    -1.9598708    3.3405794   -0.4703128 
H    -2.8236873    2.9156404   -0.1516959 
H     1.4937611    0.9049952    1.0478373 
H     0.1963799    0.2789267   -2.9488656 
H    -1.5252653    1.9843220   -2.6346137 
H    -0.2375234    2.6058181    1.3232335 
C     2.0246493   -0.5713729   -1.1507292 
C     1.4821945   -1.9705208   -0.7988191 
H     2.9130952   -0.3434171   -0.5195158 
H     2.3882433   -0.5600624   -2.2038924 
C     2.4473172   -3.0531530   -1.2496429 
O     3.5688407   -3.3689394   -0.4916443 
O     2.2363457   -3.7029700   -2.4571779 
H     2.9812007   -4.3737315   -2.6013808 
N     1.1944097   -2.0366010    0.6470031 
H     0.5435374   -2.1511600   -1.3742487 
H     0.8059034   -2.9824745    0.8775191 
H     2.0936311   -1.9600141    1.1814579 
