24
Energy =
C     0.4549548    2.6759876   -0.9761113 
C    -0.1060295    2.6353698    0.2614386 
C     0.0020058    1.5132422    1.0079335 
C     1.1206447    1.5970487   -1.4586475 
C     1.2335523    0.4656839   -0.7072809 
C     0.6685234    0.4315139    0.5315202 
O    -0.7960810    3.7306598    0.7898795 
H    -0.8466101    4.5280987    0.1652218 
H     0.7364856   -0.4637126    1.1442727 
H     1.5594880    1.6457328   -2.4515580 
H     0.3717592    3.5703552   -1.5837451 
H    -0.4562583    1.4915906    1.9907595 
C     1.9686285   -0.7450647   -1.2489536 
C     1.0388805   -1.7715309   -1.9436199 
H     2.5177228   -1.2478334   -0.4207744 
H     2.7519225   -0.4201572   -1.9689138 
C     0.0697884   -2.4274586   -0.9681546 
O     0.4521666   -3.5796082   -0.2891797 
O    -1.1568891   -1.8440620   -0.6670281 
H    -1.6532855   -2.4406812   -0.0193230 
N     0.3545778   -1.1760071   -3.1066220 
H     1.6765423   -2.6051388   -2.3156167 
H    -0.3644219   -0.4845160   -2.7826014 
H     1.0400560   -0.6667128   -3.7115590 
