24
Energy =
C    -0.3194948    1.7681857    0.6981396 
C     0.1535550    2.7758356   -0.0708713 
C     1.1221814    2.5334855   -0.9837729 
C     0.1716012    0.5108753    0.5526548 
C     1.1483720    0.2597586   -0.3631759 
C     1.6178637    1.2787943   -1.1357056 
O    -0.3520507    4.0628975    0.0810972 
H    -1.1557992    4.2058365   -0.5203394 
H     2.3936629    1.0979505   -1.8760116 
H    -0.2237786   -0.2940228    1.1687828 
H    -1.0915890    1.9793942    1.4302400 
H     1.4978801    3.3522464   -1.5885678 
C     1.6869973   -1.1422586   -0.5422593 
C     0.9727352   -1.8949914   -1.6827151 
H     1.5771625   -1.7291054    0.3985887 
H     2.7811726   -1.0931031   -0.7431224 
C     1.7149061   -3.1747978   -2.0332973 
O     2.3782363   -3.9120871   -1.0572711 
O     1.7216825   -3.6258485   -3.3464617 
H     2.2381799   -4.4954760   -3.3902371 
N    -0.4214581   -2.1672250   -1.2841813 
H     0.9960496   -1.2785447   -2.6127449 
H    -0.9800148   -1.2873537   -1.3816446 
H    -0.8485180   -2.8443222   -1.9631112 
