24
Energy =
C     0.4021269    2.3333909    0.1165014 
C    -0.0895378    1.8045045    1.2622480 
C     0.0137502    0.4759943    1.4944119 
C     1.0184598    1.5282086   -0.7988355 
C     1.1355578    0.1940654   -0.5586951 
C     0.6224916   -0.3300752    0.5877914 
O    -0.7178853    2.6272712    2.1905868 
H    -0.0449000    3.0447488    2.8253735 
H     0.6917001   -1.3970286    0.7858989 
H     1.4054089    1.9294011   -1.7633189 
H     0.2700426    3.4028891   -0.0462253 
H    -0.4006878    0.0626012    2.4082580 
C     1.8065485   -0.6908236   -1.5846964 
C     0.9052768   -0.9185464   -2.8399831 
H     2.1052198   -1.6625033   -1.1301630 
H     2.7759315   -0.2194256   -1.8821753 
C     1.5919881   -0.4561881   -4.1348223 
O     1.8865589   -1.3678794   -5.1534050 
O     1.9737420    0.8993054   -4.2651831 
H     1.7806895    1.5103008   -3.4598452 
N     0.4566012   -2.3233481   -2.8960750 
H     0.0015723   -0.2680022   -2.7995230 
H     1.2786453   -2.9662247   -3.0039843 
H    -0.0409219   -2.5765322   -2.0096446 
