24
Energy =
C    -0.7222798    0.1690519    1.1030092 
C    -1.0899598    1.4337543    0.7640842 
C    -0.3915012    2.1016614   -0.1819871 
C     0.3416168   -0.4185381    0.4984275 
C     1.0508393    0.2567745   -0.4471561 
C     0.6725589    1.5194488   -0.7896140 
O    -2.1791423    2.0686959    1.3699605 
H    -2.6629154    1.5050657    2.0599109 
H     1.2147064    2.0682056   -1.5567916 
H     0.6202885   -1.4325745    0.7742578 
H    -1.2813867   -0.3736157    1.8565206 
H    -0.6961734    3.1073974   -0.4523445 
C     2.2220544   -0.4067890   -1.1390350 
C     1.7725189   -1.2585531   -2.3413433 
H     2.7641719   -1.0568866   -0.4165666 
H     2.9596185    0.3569101   -1.4755921 
C     1.1323596   -0.4184554   -3.4372620 
O     1.7677615    0.7188501   -3.9250650 
O    -0.0818662   -0.8075099   -3.9849684 
H    -0.3478821   -0.1403425   -4.6981556 
N     2.9339987   -2.0217055   -2.8315970 
H     0.9851721   -1.9723628   -2.0018601 
H     2.6229371   -2.6529151   -3.6097859 
H     3.6270809   -1.3583630   -3.2561972 
