24
Energy =
C     0.2180997    2.3956858   -0.1884997 
C    -0.5653860    2.5766539   -1.2767096 
C    -0.5245161    1.6874683   -2.2954180 
C     1.0561290    1.3299839   -0.1209126 
C     1.1132908    0.4382791   -1.1485149 
C     0.3094900    0.6178052   -2.2338729 
O    -1.4217649    3.6713154   -1.3445659 
H    -0.9533030    4.4661073   -1.7650172 
H     0.3259448   -0.0944531   -3.0551031 
H     1.6694358    1.1876667    0.7653663 
H     0.1606769    3.1053329    0.6294063 
H    -1.1700378    1.8358797   -3.1547398 
C     2.0272715   -0.7640328   -1.0663449 
C     1.3286151   -1.9622622   -0.3951292 
H     2.9509402   -0.5108284   -0.4979570 
H     2.3679881   -1.0453919   -2.0882250 
C     2.1300678   -3.2382613   -0.5936367 
O     1.5519018   -4.3337489   -1.2223851 
O     3.4465656   -3.3181387   -0.1562773 
H     3.8063371   -4.2398188   -0.3701805 
N     1.1116005   -1.6593358    1.0318086 
H     0.3453732   -2.1355430   -0.8939768 
H     0.5375223   -2.4248173    1.4597553 
H     2.0338482   -1.6733456    1.5320744 
