24
Energy =
C    -0.1329787    2.3981035   -1.8410721 
C    -0.8284503    2.6471407   -0.7087215 
C    -0.5889797    1.9041215    0.4041772 
C     0.7989311    1.4132082   -1.8730140 
C     1.0460218    0.6660916   -0.7605613 
C     0.3450307    0.9198551    0.3795154 
O    -1.7805526    3.6709787   -0.7165073 
H    -2.2769852    3.7832483    0.1609188 
H     0.5190585    0.3285528    1.2755444 
H     1.3420445    1.2274214   -2.7955145 
H    -0.3338763    2.9954984   -2.7237165 
H    -1.1469618    2.0924264    1.3148138 
C     2.0779243   -0.4446229   -0.7954890 
C     1.4727589   -1.8388652   -1.0928054 
H     2.6164568   -0.4810741    0.1787453 
H     2.8557873   -0.2159636   -1.5567910 
C     0.5745810   -2.3247250    0.0326329 
O    -0.7795788   -2.0047113    0.0631731 
O     1.1277723   -3.0224995    1.0986001 
H     0.3896369   -3.2687555    1.7459004 
N     0.7974569   -1.8640836   -2.4043649 
H     2.3076731   -2.5762804   -1.1176715 
H    -0.0934890   -1.3114175   -2.3607190 
H     1.4075189   -1.4363844   -3.1389004 
