24
Energy =
C     0.8468543    2.5231027   -0.6803477 
C    -0.0357371    2.5815667    0.3424809 
C    -0.3547088    1.4468714    1.0200550 
C     1.4128700    1.3415952   -1.0336290 
C     1.0949009    0.2014822   -0.3607379 
C     0.2078385    0.2618002    0.6709729 
O    -0.5988542    3.8176317    0.6759999 
H    -1.2462222    3.7837254    1.4556719 
H    -0.0566069   -0.6350977    1.2254555 
H     2.1222070    1.3167851   -1.8573731 
H     1.0955399    3.4350394   -1.2126591 
H    -1.0597526    1.4868026    1.8428379 
C     1.7231765   -1.1163359   -0.7612937 
C     1.1569093   -1.6540591   -2.0997047 
H     1.5911139   -1.8868342    0.0323903 
H     2.8237654   -0.9662356   -0.8538768 
C     1.9914580   -2.8196277   -2.5964510 
O     2.7103997   -2.7086450   -3.7786434 
O     2.0691490   -3.9968852   -1.8654806 
H     1.2811153   -4.5729435   -2.1217126 
N    -0.2599496   -2.0569796   -1.9704071 
H     1.2588664   -0.8607744   -2.8781142 
H    -0.6533303   -1.8397207   -1.0259362 
H    -0.8365384   -1.5170473   -2.6584364 
