24
Energy =
C     1.9283335    2.3624936   -0.7352592 
C     1.0725181    2.7486827    0.2482787 
C     0.3224939    1.8208006    0.8842176 
C     2.0319971    1.0522786   -1.0733440 
C     1.2835427    0.1157486   -0.4278381 
C     0.4213741    0.5093818    0.5494447 
O     0.9434519    4.0888373    0.6251277 
H     1.5248018    4.7248693    0.0894639 
H    -0.1940433   -0.2225168    1.0650857 
H     2.7130339    0.7596213   -1.8698225 
H     2.5292214    3.1000737   -1.2566159 
H    -0.3602476    2.1450178    1.6620588 
C     1.3803023   -1.3439998   -0.8182082 
C     0.2682876   -1.7518153   -1.8152927 
H     1.3114582   -1.9739229    0.0958247 
H     2.3751696   -1.5588145   -1.2733683 
C     0.3557768   -0.9690653   -3.1157455 
O    -0.7652600   -0.3056169   -3.6036988 
O     1.5495052   -0.8876904   -3.8245628 
H     1.3805795   -0.3603506   -4.6700449 
N     0.3168636   -3.2045832   -2.0843076 
H    -0.7204222   -1.4862920   -1.3720904 
H     1.0609551   -3.6973073   -1.5368822 
H    -0.5992250   -3.6451287   -1.8331985 
