24
Energy =
C     0.0223319    1.5246231    1.1263257 
C    -0.2020732    2.5974282    0.3211959 
C     0.2992980    2.6071075   -0.9346338 
C     0.7483270    0.4711845    0.6730296 
C     1.2628426    0.4845444   -0.5874999 
C     1.0276548    1.5578527   -1.3922499 
O    -0.9431105    3.6996850    0.7583403 
H    -1.2962178    3.6115203    1.7049571 
H     1.4124949    1.5794545   -2.4097682 
H     0.9140419   -0.3820907    1.3259254 
H    -0.3803426    1.5060354    2.1334249 
H     0.1054270    3.4640110   -1.5708248 
C     2.0534192   -0.7007484   -1.0996474 
C     1.1388380   -1.7844440   -1.7082787 
H     2.6459291   -1.1364200   -0.2652514 
H     2.7973312   -0.3758364   -1.8630957 
C     0.3938200   -1.2724536   -2.9359628 
O    -0.9500356   -1.5746255   -3.1068641 
O     1.0551855   -0.5543002   -3.9251137 
H     1.4854221   -1.2177488   -4.5533169 
N     1.9612638   -2.9628773   -2.0345661 
H     0.3575235   -2.0662567   -0.9631128 
H     2.3527819   -3.3664975   -1.1505151 
H     1.3440506   -3.7102909   -2.4355174 
