13
Energy = -323.6175640
C    -1.1522038    0.7397085   -0.1076690 
C    -0.1766057   -0.4486779   -0.2035424 
H    -1.0049633    1.4458299   -0.9267303 
H    -1.0188695    1.2640793    0.8406286 
H    -2.1783042    0.3707808   -0.1565506 
C     1.2377382    0.0920711   -0.1429182 
N    -0.3281643   -1.4542157    0.8375308 
H    -0.3047192   -0.9210232   -1.1810347 
H     0.1377024   -1.1464459    1.6841191 
H    -1.3058909   -1.6118495    1.0466290 
O     1.9182690    0.1402224    0.8485415 
O     1.6453063    0.5774241   -1.3355195 
H     2.5307050    0.9520961   -1.2034842 
