13
Energy = -323.6098291
C    -1.2203597    0.3456569   -0.4326140 
C     0.0567084   -0.3946688   -0.0198556 
H    -1.1644845    0.7654888   -1.4420028 
H    -1.4476831    1.1409065    0.2774215 
H    -2.0561284   -0.3545148   -0.4320427 
C     1.2760459    0.5204333    0.1167930 
N    -0.1496790   -1.0754927    1.2474131 
H     0.3302316   -1.0848642   -0.8370465 
H    -0.5753153   -1.9831260    1.1161718 
H     0.7349639   -1.1870775    1.7288148 
O     2.0873507    0.4180304    0.9924016 
O     1.4390008    1.4493680   -0.8533843 
H     0.6893485    1.4398600   -1.4620700 
