13
Energy = -323.6192790
C    -1.2707893    0.6144475   -0.1357009 
C     0.0188043   -0.1466132   -0.4372659 
H    -1.2935404    1.5472507   -0.6961982 
H    -1.3374086    0.8481937    0.9292090 
H    -2.1402438    0.0168151   -0.4171845 
C     1.2146311    0.7793252   -0.1556544 
N     0.1166416   -1.3526128    0.3968885 
H     0.0544136   -0.3736644   -1.5062031 
H    -0.7941693   -1.6970031    0.6710613 
H     0.6066013   -2.1023626   -0.0751881 
O     1.5039399    1.7011541   -0.8681966 
O     1.8783372    0.4866064    0.9701005 
H     1.4427825   -0.3215367    1.3243324 
