13
Energy = -323.6157648
C    -1.2682268    0.4917348   -0.3602382 
C    -0.0405123   -0.4356874   -0.3829723 
H    -1.2274153    1.2254982   -1.1677757 
H    -1.3301562    1.0219001    0.5921032 
H    -2.1754255   -0.1027090   -0.4834659 
C     1.2126227    0.4164887   -0.3064308 
N    -0.0181249   -1.4656267    0.6521274 
H     0.0085243   -0.9308761   -1.3535502 
H     0.0006581   -1.0443689    1.5738942 
H    -0.8517842   -2.0383979    0.5904523 
O     1.8338981    0.8207298   -1.2528981 
O     1.5335202    0.7392013    0.9689275 
H     2.3224218    1.3021133    0.9298265 
