13
Energy = -323.6162272
C    -1.2855645    0.8635553    0.1736106 
C    -0.2023971   -0.0886678   -0.3065516 
H    -1.1314666    1.8627098   -0.2305277 
H    -1.2806682    0.9229404    1.2617148 
H    -2.2641155    0.5045642   -0.1514568 
C     1.1820234    0.4232191    0.0599120 
N    -0.3964926   -1.4193825    0.2731206 
H    -0.2078412   -0.1003403   -1.4105798 
H    -1.2966602   -1.7901666   -0.0065479 
H     0.3193682   -2.0613280   -0.0441687 
O     1.4482239    1.5274942    0.4513269 
O     2.1316647   -0.5196674   -0.1559653 
H     2.9839258   -0.1249302    0.0861129 
