24
 energy: -39.995965661809 gnorm: 0.004434101152 xtb: 6.6.0 (2ccbbd7)
C            1.21161440598882        2.55216509016275       -0.44042557109310
C           -0.04363336825823        2.72012344483822        0.12835636896859
C           -0.75752391135512        1.60282923934005        0.55341411101255
C            1.74623959020062        1.28216064918384       -0.57372764529702
C            1.04494448382864        0.16290892312494       -0.14435558465157
C           -0.21634973869254        0.34163723095484        0.41606571971978
O           -0.60814293652111        3.94781448459178        0.29016073954368
H           -0.00563915550150        4.63311585970124       -0.02232558122166
H           -0.77437572627042       -0.52065386695885        0.74622434515896
H            2.73230198264394        1.17035299187543       -1.00481766287591
H            1.77407487468614        3.41500275207352       -0.77347446607830
H           -1.73118784531039        1.74759232113636        0.99276186187682
C            1.61892225635560       -1.21551027942847       -0.31695990470205
C            1.17617007390594       -1.85052937487456       -1.65118414823500
H            1.27595580222331       -1.86740644461678        0.48695664131153
H            2.71078931072740       -1.17026939858553       -0.29375356337194
C           -0.31037353385563       -2.26500036386245       -1.60503654233277
O           -0.84681416239164       -2.69007913535959       -0.62099330625509
O           -0.91903209436640       -2.14396509281539       -2.77883032021353
H           -0.27481571183418       -1.74972603045782       -3.40664871014056
N            1.37354446186386       -1.02626771445064       -2.83785089517388
H            1.73006909229918       -2.78785376227849       -1.79591239143752
H            1.06688828222022       -0.07288937588783       -2.64350948080461
H            2.35413626741342       -0.98610374740649       -3.09751211370735
