13
Energy =
C    -3.7253550    1.7495522    0.3820854 
C    -2.4850992    2.6243910    0.2531370 
C    -4.9551259    2.3699721   -0.3088431 
H    -5.1532236    3.3889369    0.0907522 
H    -5.8561369    1.7432569   -0.1383022 
H    -4.7749181    2.4597570   -1.4041810 
N    -3.4678635    0.3955472   -0.1497628 
H    -3.9270966    1.7032222    1.4798220 
H    -3.4945304   -0.3019153    0.6315711 
H    -4.1875831    0.0880717   -0.8470622 
O    -2.3373636    3.5098162   -0.8086562 
O    -1.4632037    2.5129015    1.1851130 
H    -0.8902415    1.7230164    0.9252607 
