13
Energy =
C    -3.8574627    1.8225966    0.3729379 
C    -2.6228094    2.7356956    0.4301304 
C    -5.0054735    2.3567185   -0.5246004 
H    -5.9037563    2.5786423    0.0911743 
H    -5.3070218    1.6231886   -1.3030557 
H    -4.7293082    3.2952677   -1.0550591 
N    -3.4894663    0.4627342   -0.0458914 
H    -4.2366219    1.7752145    1.4203104 
H    -4.3273885   -0.1642482    0.0067565 
H    -3.1645525    0.4751105   -1.0436823 
O    -2.3197172    3.5778075   -0.6350047 
O    -1.7567387    2.7072873    1.5233260 
H    -1.9916813    1.9613189    2.1618618 
