13
Energy =
C    -3.5974724    1.6292073    0.1874980 
C    -2.5899683    2.7678660    0.0272633 
C    -5.0217260    2.1470702    0.4887873 
H    -5.3384303    1.8347092    1.5068402 
H    -5.7651823    1.7537168   -0.2391508 
H    -5.0803805    3.2574106    0.4448963 
N    -3.6621987    0.7617314   -1.0010209 
H    -3.2257858    1.0428025    1.0618458 
H    -2.6940716    0.4477278   -1.2575519 
H    -4.1890457   -0.1105229   -0.7582755 
O    -2.4532393    3.7174249    1.0314729 
O    -1.7684805    2.8493126   -1.0895390 
H    -2.2621442    3.3604236   -1.8061648 
