13
Energy =
C    -3.5315396    1.7323553    0.4255404 
C    -2.6335344    2.8629106   -0.0785769 
C    -4.9759773    1.8638071   -0.0981515 
H    -5.6759423    2.0191573    0.7506424 
H    -5.2954933    0.9370322   -0.6248694 
H    -5.0992980    2.7198234   -0.7976844 
N    -3.0344557    0.3863906    0.0868030 
H    -3.5529594    1.8448545    1.5368645 
H    -2.3047755    0.4014435   -0.6564557 
H    -2.5883468   -0.0486865    0.9330252 
O    -2.2923851    3.8942349    0.7804029 
O    -2.2436635    2.9556099   -1.4082253 
H    -2.4125658    2.0590902   -1.8350368 
