13
Energy =
C    -3.7093786    1.6174435    0.2678307 
C    -2.4084243    2.4025375    0.1572251 
C    -4.9475910    2.4845879   -0.0215699 
H    -4.9219627    2.8636582   -1.0678482 
H    -4.9758597    3.3629391    0.6603697 
H    -5.8795411    1.8979624    0.1234548 
N    -3.7117159    0.4523632   -0.6301633 
H    -3.7476791    1.2668927    1.3274302 
H    -4.5887358   -0.1041999   -0.4911344 
H    -3.7026141    0.7718464   -1.6300103 
O    -2.2296436    3.3451679   -0.8482336 
O    -1.3591150    2.1295923    1.0218840 
H    -0.8623560    1.3278594    0.6613749 
