13
Energy =
C    -3.6950554    1.6708979    0.2782975 
C    -2.4504593    2.5262439    0.0904578 
C    -4.9795422    2.4820916    0.0301312 
H    -5.8768181    1.8578829    0.2274831 
H    -5.0085382    2.8404445   -1.0235161 
H    -5.0148579    3.3713047    0.6976655 
N    -3.6571464    0.4872608   -0.6051313 
H    -3.6809851    1.3535704    1.3497357 
H    -3.6265613   -0.3852402   -0.0255380 
H    -4.5047125    0.4086401   -1.2167109 
O    -1.5305006    2.6548739    1.1228381 
O    -2.2146910    3.1792764   -1.1116462 
H    -1.7325848    2.5341062   -1.7199046 
