13
Energy =
C    -3.6697773    1.7432414    0.5053589 
C    -2.4245703    2.4314404   -0.0518442 
C    -4.9456129    2.5540682    0.2454506 
H    -5.1364623    2.6070892   -0.8488185 
H    -4.8341818    3.5925553    0.6273364 
H    -5.8181438    2.0784582    0.7394795 
N    -3.8627494    0.4050504   -0.0739899 
H    -3.5052397    1.6632700    1.6051820 
H    -2.9755594   -0.1472690    0.0232929 
H    -4.5846711   -0.1096799    0.4828834 
O    -1.1936855    1.7856350    0.0001711 
O    -2.4822889    3.7338918   -0.5390450 
H    -1.5587594    4.0057702   -0.8513078 
