13
Energy =
C    -3.7479041    1.7489023    0.3345218 
C    -2.3669332    2.3945479    0.3206900 
C    -4.7760611    2.6221495   -0.3919553 
H    -4.4952630    2.7117761   -1.4666938 
H    -4.8206651    3.6389698    0.0536423 
H    -5.7852480    2.1620972   -0.3351526 
N    -3.7432878    0.4269219   -0.3096124 
H    -4.0336817    1.6495926    1.4092444 
H    -2.9585005   -0.1517877    0.0773179 
H    -4.6286726   -0.0792795   -0.0725244 
O    -1.7009443    2.6256574   -0.8754939 
O    -1.7761536    2.7969570    1.5115251 
H    -2.2012964    3.6600661    1.8160124 
