13
Energy =
C    -3.6042551    1.6420784    0.2774757 
C    -2.5760188    2.7677833    0.1280741 
C    -5.0446320    2.1684165    0.2329073 
H    -5.2181753    2.9241663    1.0284619 
H    -5.7672963    1.3371462    0.3718847 
H    -5.2390174    2.6432887   -0.7545776 
N    -3.4724967    0.6276608   -0.7796622 
H    -3.4155138    1.1774288    1.2728171 
H    -2.4745132    0.3082843   -0.8403698 
H    -4.0273704   -0.2203332   -0.5160689 
O    -1.2714847    2.4762501   -0.2513992 
O    -2.8828967    4.0689283    0.5124431 
H    -2.8531398    4.1307809    1.5192064 
