13
Energy =
C    -3.8867070    1.6678392    0.0600449 
C    -3.2336910    2.5225316    1.1643299 
C    -4.0879679    2.4420761   -1.2692977 
H    -3.5074294    1.9915309   -2.1045526 
H    -3.7377752    3.5030874   -1.1837040 
H    -5.1609142    2.4507519   -1.5546043 
N    -3.1052552    0.4669050   -0.2570121 
H    -4.8782585    1.3700019    0.4850523 
H    -2.8955411   -0.0638675    0.6232981 
H    -3.6850166   -0.1719141   -0.8511251 
O    -2.1565400    2.0377916    1.8984293 
O    -3.7233868    3.8015858    1.4453832 
H    -4.6071632    3.9942806    0.9917341 
