13
Energy =
C    -3.7365621    1.7826902    0.2761957 
C    -2.5809215    2.7827472    0.3400124 
C    -4.8665997    2.2575384   -0.6542339 
H    -5.7085502    1.5324474   -0.6449770 
H    -4.5009703    2.3653545   -1.6991061 
H    -5.2539886    3.2459717   -0.3195256 
N    -3.2983414    0.4357266   -0.1275239 
H    -4.1211571    1.7404316    1.3253706 
H    -4.0470120   -0.2602882    0.1045728 
H    -3.1489159    0.3799769   -1.1625785 
O    -2.4857193    3.6244816    1.4411956 
O    -1.6707601    2.9436624   -0.7049000 
H    -1.8070904    2.2544500   -1.4262753 
