13
Energy =
C    -3.6618148    1.6994181    0.2771042 
C    -2.5180076    2.6854610    0.0681750 
C    -5.0206479    2.3021922   -0.0964113 
H    -5.2300892    3.2082547    0.5139874 
H    -5.8251595    1.5570867    0.0903106 
H    -5.0487810    2.5768789   -1.1729217 
N    -3.4899415    0.4544214   -0.4880850 
H    -3.6619538    1.4643637    1.3698028 
H    -3.3848532    0.6820651   -1.5070884 
H    -2.5897159   -0.0031010   -0.2054964 
O    -1.9984988    3.3792140    1.1517863 
O    -2.0182542    2.9385016   -1.2028258 
H    -2.6313741    3.5901328   -1.6694373 
