13
Energy =
C    -3.5201019    1.6657494    0.3027551 
C    -2.8014089    3.0132421    0.1272578 
C    -5.0606120    1.7679867    0.2379781 
H    -5.4144961    2.7923729   -0.0111838 
H    -5.5132433    1.4786992    1.2096804 
H    -5.4735656    1.0923421   -0.5433808 
N    -3.0923018    0.6571901   -0.6875747 
H    -3.2443483    1.3305467    1.3315952 
H    -2.3110927    1.0093536   -1.2939281 
H    -2.7429558   -0.2024235   -0.2016806 
O    -3.4267751    4.0749284   -0.5149272 
O    -1.4910352    3.1866808    0.5716887 
H    -1.0976708    2.3359730    0.9442864 
