13
Energy =
C    -3.9508327    1.8913593    0.2488920 
C    -2.6728735    2.6758479    0.5156665 
C    -4.7435610    2.4400403   -0.9568317 
H    -4.8629261    1.6688877   -1.7487270 
H    -4.2399787    3.3162968   -1.4235048 
H    -5.7603701    2.7533011   -0.6389552 
N    -3.6906248    0.4589952    0.0308089 
H    -4.5687018    2.0136679    1.1717251 
H    -2.9862774    0.3511942   -0.7399910 
H    -3.2436849    0.0574113    0.8901608 
O    -1.7203495    2.8386988   -0.4838763 
O    -2.4461656    3.2267385    1.7688301 
H    -1.5510433    3.6995230    1.7602179 
