13
Energy =
C    -3.5590096    1.7030488    0.2735493 
C    -2.5821175    2.8733274    0.1129260 
C    -5.0346653    2.1163097    0.0875989 
H    -5.1407674    3.1904460   -0.1805212 
H    -5.6058100    1.9407569    1.0228619 
H    -5.5183166    1.5309104   -0.7244972 
N    -3.2942654    0.5759826   -0.6467613 
H    -3.4091053    1.3778327    1.3309348 
H    -2.4145801    0.7234774   -1.2003920 
H    -3.1438224   -0.3001871   -0.0939008 
O    -1.2587891    2.6455064   -0.2484444 
O    -2.9661992    4.1665861    0.4452412 
H    -2.1724932    4.7815821    0.3152308 
