13
Energy =
C    -3.6242409    1.5981962    0.1461345 
C    -2.5045641    2.6332985    0.2905186 
C    -5.0050431    2.2416771   -0.0392539 
H    -5.2507817    2.9046999    0.8186356 
H    -5.7845905    1.4539939   -0.1237146 
H    -5.0263501    2.8533372   -0.9685991 
N    -3.3992145    0.6815256   -0.9814386 
H    -3.6394827    1.0186726    1.0993749 
H    -3.2939064    1.2340185   -1.8682106 
H    -2.4949992    0.1694338   -0.8460541 
O    -2.6525076    3.9018809   -0.2568053 
O    -1.3083946    2.3169095    0.9333380 
H    -1.2736957    1.3522133    1.2262147 
