13
Energy =
C    -3.7664467    1.7613070    0.3436994 
C    -2.6211439    2.7868927    0.3699469 
C    -4.9989914    2.2541530   -0.4485084 
H    -5.2911971    1.5266603   -1.2371691 
H    -4.8126716    3.2207026   -0.9665640 
H    -5.8672565    2.3947143    0.2295751 
N    -3.3284958    0.4766585   -0.2229349 
H    -4.0814222    1.6037336    1.4016381 
H    -2.4466614    0.1620775    0.2492648 
H    -4.0471963   -0.2558212   -0.0116244 
O    -2.3583906    3.5762146   -0.7447133 
O    -1.7928110    2.9162463    1.4865525 
H    -2.0305839    2.2636074    2.2179191 
