13
Energy =
C    -3.6456778    1.6673016    0.2735432 
C    -2.4902043    2.6267712    0.0276454 
C    -5.0051510    2.3732650    0.1246205 
H    -5.0745689    3.2345404    0.8249685 
H    -5.8351327    1.6701020    0.3491084 
H    -5.1236470    2.7604806   -0.9127717 
N    -3.5680490    0.5066641   -0.6375103 
H    -3.5369235    1.3338171    1.3346293 
H    -3.4343877   -0.3709263   -0.0805702 
H    -4.4412434    0.3713749   -1.2011732 
O    -1.5212609    2.8171038    1.0041732 
O    -2.3845489    3.3133613   -1.1744255 
H    -1.8953722    2.7165257   -1.8249947 
