13
Energy =
C    -3.6659472    1.5814338    0.2355360 
C    -2.3837484    2.4236505    0.2100420 
C    -4.9400826    2.4451990    0.1221533 
H    -5.5828455    2.3045119    1.0172439 
H    -5.5472519    2.1601072   -0.7655614 
H    -4.7067069    3.5296230    0.0290867 
N    -3.7004629    0.5549811   -0.8192711 
H    -3.6708537    1.0644440    1.2240510 
H    -3.5756247    1.0113536   -1.7564618 
H    -2.8777007   -0.0852167   -0.7057342 
O    -1.6051028    2.4765852   -0.9398455 
O    -1.9992277    3.1811740    1.3158001 
H    -2.6514992    3.0942172    2.0810016 
