13
Energy =
C    -3.6139325    1.6296678    0.2458012 
C    -2.4846801    2.6824586    0.2822404 
C    -5.0118593    2.2513951   -0.0223113 
H    -5.6732143    2.1089797    0.8584226 
H    -5.5089251    1.7950630   -0.9051779 
H    -4.9673848    3.3417405   -0.2354878 
N    -3.3752573    0.5693338   -0.7530307 
H    -3.6202170    1.1799593    1.2666532 
H    -2.5808335   -0.0382700   -0.4475612 
H    -4.1925581   -0.0867676   -0.7732243 
O    -2.7936765    4.0214609    0.4986275 
O    -1.1333275    2.3342812    0.2383290 
H    -0.9865419    1.3468223    0.1235305 
