13
Energy =
C    -3.6227598    1.6136378    0.1711353 
C    -2.4640722    2.5810956   -0.0711834 
C    -4.9098341    2.3432038    0.6168360 
H    -5.7721376    2.0950133   -0.0405828 
H    -4.7920354    3.4494644    0.5939924 
H    -5.1759165    2.0558836    1.6565221 
N    -3.9385260    0.8024513   -1.0169883 
H    -3.2698943    0.9504303    0.9970821 
H    -3.0623320    0.3461589   -1.3716477 
H    -4.5737357    0.0183953   -0.7357584 
O    -2.0816268    3.4668063    0.9278460 
O    -1.7488991    2.5627523   -1.2615238 
H    -2.2182577    3.1671106   -1.9195221 
