13
Energy =
C    -3.5701250    1.6983794    0.2724166 
C    -2.6058148    2.8098852   -0.1287582 
C    -5.0573128    2.1313732    0.1375980 
H    -5.6677277    1.4549437   -0.4954724 
H    -5.1527653    3.1509052   -0.2969926 
H    -5.5359194    2.1598018    1.1408967 
N    -3.2904723    0.4580213   -0.4820085 
H    -3.3551038    1.5285048    1.3558697 
H    -2.9347000   -0.2842717    0.1655392 
H    -4.1212101    0.0585519   -0.9746146 
O    -2.1743962    3.7225811    0.8259510 
O    -2.2378712    3.0002478   -1.4549205 
H    -2.9451340    3.5564736   -1.9084331 
