13
Energy =
C    -3.6436051    1.7197988    0.2415867 
C    -2.5581298    2.7321229   -0.1187682 
C    -5.0689493    2.3241111    0.1047151 
H    -5.7383003    1.7499311   -0.5674326 
H    -5.0354986    3.3628687   -0.2945174 
H    -5.5609057    2.3674096    1.1002945 
N    -3.5156597    0.4385856   -0.4967649 
H    -3.4583643    1.5035370    1.3208640 
H    -4.3658711    0.1924589   -1.0518602 
H    -2.7391419    0.4861154   -1.2019980 
O    -1.9432036    3.4773444    0.8803432 
O    -2.2081298    2.9549893   -1.4456224 
H    -1.4967818    3.6741376   -1.4791035 
