13
Energy =
C    -4.0008972    1.9678848    0.3469229 
C    -2.8707226    2.9893460    0.3673150 
C    -4.8610064    2.0747258   -0.9250599 
H    -4.2502158    1.8644332   -1.8313352 
H    -5.2817481    3.1001241   -1.0228943 
H    -5.7062832    1.3549822   -0.8871066 
N    -3.4850208    0.5976349    0.4756854 
H    -4.6373191    2.2018261    1.2329613 
H    -4.2839361   -0.0781924    0.5223460 
H    -2.9155118    0.3499132   -0.3700534 
O    -2.0206969    3.1237124   -0.7247477 
O    -2.6581529    3.7721731    1.4942066 
H    -2.1078329    3.2405502    2.1536880 
