13
Energy =
C    -3.6555310    1.7057958    0.3512085 
C    -2.7845217    2.9560098    0.2453715 
C    -5.0591704    1.9240876   -0.2478930 
H    -5.1645924    2.9292243   -0.7144558 
H    -5.8383147    1.8234000    0.5367150 
H    -5.2747761    1.1770677   -1.0435112 
N    -3.0568667    0.5274646   -0.3076668 
H    -3.7629597    1.5178639    1.4476581 
H    -2.0693579    0.7080135   -0.6135216 
H    -3.0307014   -0.2796137    0.3593848 
O    -2.5772663    3.5738349   -0.9808953 
O    -2.1575890    3.4651631    1.3744356 
H    -1.3269852    2.9233389    1.5628912 
