13
Energy =
C    -3.6794170    1.6148196    0.2829346 
C    -2.3977387    2.4339377    0.1673537 
C    -4.9560140    2.4863851    0.1105934 
H    -4.7029319    3.5492312   -0.1078253 
H    -5.5623592    2.4678923    1.0414627 
H    -5.6133237    2.1545153   -0.7190166 
N    -3.6559698    0.4831693   -0.6674871 
H    -3.6713681    1.2169950    1.3264071 
H    -3.6094593   -0.4240623   -0.1462559 
H    -4.4901804    0.4321998   -1.2953417 
O    -2.1489347    3.2046820   -0.9621141 
O    -1.4952585    2.4743936    1.2240120 
H    -1.8383343    3.1118683    1.9266324 
