13
Energy =
C    -3.9920845    1.9739461    0.3465941 
C    -2.9003090    3.0369635    0.3537669 
C    -4.7851189    1.9616754   -0.9741420 
H    -4.1170105    1.6940804   -1.8236222 
H    -5.2167736    2.9664638   -1.1775168 
H    -5.6169416    1.2275572   -0.9204571 
N    -3.4208833    0.6402362    0.6173685 
H    -4.6950546    2.2613483    1.1647950 
H    -3.7857783    0.2814413    1.5314318 
H    -3.6856930   -0.0690151   -0.1070174 
O    -2.2299636    3.3809851   -0.8155493 
O    -2.5312783    3.6423831    1.5479166 
H    -1.8703481    3.0403310    2.0177953 
