13
Energy =
C    -3.6200192    1.7043074    0.3535123 
C    -2.6170467    2.8419249    0.2191810 
C    -4.9565391    2.0567543   -0.3092308 
H    -5.3631154    3.0023963    0.1105962 
H    -5.6978311    1.2467681   -0.1461693 
H    -4.8101230    2.1895808   -1.4044553 
N    -3.1134926    0.4656770   -0.2553984 
H    -3.7826971    1.5567472    1.4483008 
H    -2.2018078    0.2129899    0.1979625 
H    -3.7671150   -0.3209891   -0.0282662 
O    -1.8217608    3.1936695    1.3005425 
O    -2.4340133    3.4913227   -0.9942930 
H    -1.8020823    2.9367709   -1.5528383 
