13
Energy =
C    -3.7738575    1.8589533    0.2811132 
C    -2.5958708    2.8167567    0.0763541 
C    -4.9672374    2.2234012   -0.6091850 
H    -5.3355524    3.2466443   -0.3815106 
H    -5.7975495    1.5021516   -0.4431508 
H    -4.6804998    2.1781863   -1.6836860 
N    -3.4271820    0.4518056    0.0196102 
H    -4.0763159    1.9630956    1.3499805 
H    -3.0853133    0.3525826   -0.9679442 
H    -2.6161110    0.1739925    0.6241104 
O    -1.4884497    2.4105403   -0.6578763 
O    -2.6139815    4.1076935    0.6026850 
H    -3.4852823    4.3188622    1.0651512 
