13
Energy =
C    -3.8783441    1.6957334    0.2022226 
C    -2.6645466    2.5730710    0.5033027 
C    -4.9736222    2.4575542   -0.5550723 
H    -5.8734011    1.8212812   -0.6880720 
H    -4.5904840    2.7548571   -1.5571877 
H    -5.2605436    3.3799342   -0.0054825 
N    -3.5114172    0.5160571   -0.5949479 
H    -4.2772198    1.3760623    1.1934940 
H    -2.7404323   -0.0010021   -0.1065463 
H    -4.3243043   -0.1434101   -0.6268207 
O    -1.7584909    2.1820928    1.4828863 
O    -2.4439602    3.7627310   -0.1838647 
H    -1.5782113    4.1690107    0.1457263 
