13
Energy =
C    -3.6491738    1.5305902    0.1857778 
C    -2.3543282    2.3170554    0.0252722 
C    -4.8960724    2.4521570    0.3075176 
H    -4.6235850    3.5267784    0.1986509 
H    -5.3691893    2.3259708    1.3045958 
H    -5.6732605    2.2537455   -0.4579034 
N    -3.7984014    0.5478205   -0.9091530 
H    -3.5214919    0.9909935    1.1559130 
H    -3.7313568   -0.4254620   -0.5281496 
H    -4.7060165    0.6126856   -1.4234849 
O    -2.2561594    3.3539831   -0.8984286 
O    -1.2564632    2.0163185    0.8223461 
H    -0.4902436    2.6194518    0.5533937 
