13
Energy =
C    -3.6820587    1.6760035    0.3105997 
C    -2.4020308    2.4872383    0.1210419 
C    -4.9472116    2.4537184   -0.1508906 
H    -4.6806148    3.4387125   -0.5971089 
H    -5.6031174    2.6599202    0.7218044 
H    -5.5564530    1.9165003   -0.9053237 
N    -3.5852185    0.3540606   -0.3450461 
H    -3.7482256    1.5359457    1.4153887 
H    -3.5955352   -0.4049978    0.3754039 
H    -4.3555651    0.1514236   -1.0207782 
O    -2.3294496    3.7846828    0.6187025 
O    -1.2811812    1.9468906   -0.4981658 
H    -0.5490345    2.6431243   -0.5072040 
