13
Energy =
C    -3.9554101    2.0907945    0.3353774 
C    -2.6575041    2.8845623    0.5523995 
C    -4.6963693    2.4400614   -0.9841804 
H    -4.8348027    1.5560016   -1.6431835 
H    -4.1537707    3.2045748   -1.5848605 
H    -5.7036732    2.8532166   -0.7606393 
N    -3.7312310    0.6362790    0.3929440 
H    -4.5915944    2.3932262    1.2015864 
H    -4.6474440    0.1321684    0.3213658 
H    -3.1404781    0.3360348   -0.4211284 
O    -2.5161028    4.1476894   -0.0100635 
O    -1.6464693    2.4227650    1.3950330 
H    -1.8782557    1.5310401    1.8074180 
