13
Energy =
C    -3.7958532    1.7403808    0.3063263 
C    -2.5841372    2.6608265    0.3861720 
C    -4.9455496    2.3807233   -0.4780969 
H    -5.8116375    1.6852950   -0.5158852 
H    -4.6284220    2.6018742   -1.5213899 
H    -5.2681097    3.3301985    0.0020970 
N    -3.4838812    0.4457979   -0.3188180 
H    -4.1345023    1.5746429    1.3573639 
H    -3.0627901    0.6060094   -1.2675637 
H    -2.7559022   -0.0516521    0.2472158 
O    -1.9610983    3.1074542   -0.7719101 
O    -2.0780427    3.0420638    1.6209213 
H    -1.5102563    2.2936156    1.9903860 
