13
Energy =
C    -3.6390293    1.7721199    0.3293244 
C    -2.5827529    2.8521612    0.0976871 
C    -5.0156987    2.1548264   -0.2829976 
H    -5.7643118    2.2993795    0.5253813 
H    -5.4247616    1.3943198   -0.9780669 
H    -4.9595159    3.1094937   -0.8551652 
N    -3.1976213    0.4255163   -0.1092023 
H    -3.7501657    1.7422267    1.4402038 
H    -3.8649124   -0.0519237   -0.7572847 
H    -2.2718707    0.4549413   -0.5992213 
O    -1.7812576    3.2771075    1.1471238 
O    -2.3869481    3.3980559   -1.1649235 
H    -1.8277320    2.7635610   -1.7140192 
