13
Energy =
C    -3.7934164    1.7514159    0.3004269 
C    -2.6248567    2.7446104    0.3211067 
C    -4.9950599    2.2860165   -0.5281128 
H    -5.8780892    2.4374029    0.1295513 
H    -5.3094627    1.6111676   -1.3508973 
H    -4.7622749    3.2657767   -1.0046210 
N    -3.3459143    0.4275527   -0.1812523 
H    -4.1249742    1.6510013    1.3609769 
H    -3.3883147   -0.2749762    0.5944286 
H    -3.9120419    0.0417053   -0.9708337 
O    -1.6861805    2.7370241   -0.7044590 
O    -2.5249896    3.7270090    1.3094281 
H    -3.2939057    3.6956543    1.9612252 
