13
Energy =
C    -3.6669158    1.6831005    0.2580477 
C    -2.5865664    2.7635543    0.2991214 
C    -5.0860667    2.2660245    0.1033129 
H    -5.7104493    2.0124765    0.9853684 
H    -5.5860740    1.8604255   -0.8032088 
H    -5.0716037    3.3730294   -0.0105574 
N    -3.4575318    0.7010179   -0.8249220 
H    -3.5981278    1.1752839    1.2512276 
H    -2.5405365    0.8572106   -1.3106178 
H    -3.4176335   -0.2642551   -0.4209841 
O    -1.5040743    2.6256338    1.1593356 
O    -2.6451927    3.8670424   -0.5442820 
H    -1.8275101    4.4424863   -0.3874551 
