13
Energy =
C    -3.6414644    1.6582666    0.2606505 
C    -2.5479307    2.7292196    0.1663797 
C    -5.0635494    2.2449594    0.1080921 
H    -5.6093589    1.7727262   -0.7380171 
H    -5.0472577    3.3384635   -0.1004556 
H    -5.6525707    2.0795998    1.0344694 
N    -3.4755991    0.5966137   -0.7460114 
H    -3.5356600    1.2187595    1.2800042 
H    -2.4892017    0.2386322   -0.7271802 
H    -4.0795903   -0.2186485   -0.4865128 
O    -1.2784235    2.4051205   -0.2967069 
O    -2.7587026    3.9982484    0.6950187 
H    -2.6641249    3.9558732    1.6990352 
