13
Energy =
C    -3.5464809    1.5800290    0.2361028 
C    -2.4060646    2.5768677    0.0686584 
C    -4.8943184    2.2955151    0.3190627 
H    -5.0902896    2.8325947   -0.6360915 
H    -4.9011990    3.0290968    1.1538603 
H    -5.7088854    1.5577976    0.4772346 
N    -3.6359917    0.6041808   -0.8672281 
H    -3.3481047    1.0620093    1.2062412 
H    -2.7906511    0.6505841   -1.4876214 
H    -3.6692523   -0.3670215   -0.4779152 
O    -2.2860479    3.3362046   -1.0894124 
O    -1.4809848    2.7466317    1.0888347 
H    -0.8101441    3.4481797    0.8012050 
