13
Energy =
C    -3.6989075    1.6997842    0.2446024 
C    -2.5426015    2.6926695    0.2017272 
C    -5.0626484    2.3506622   -0.0738101 
H    -5.7678029    2.2050615    0.7711968 
H    -5.5233158    1.9012134   -0.9799847 
H    -4.9650859    3.4430990   -0.2662798 
N    -3.4923738    0.5676592   -0.6726246 
H    -3.7193876    1.3193058    1.2945940 
H    -3.3124660    0.9398500   -1.6373553 
H    -2.6207158    0.0562930   -0.3925467 
O    -1.5487624    2.6432437    1.1701356 
O    -2.4485343    3.6298730   -0.8191859 
H    -1.6012265    4.1677277   -0.6852158 
