13
Energy =
C    -3.8114913    1.7295029    0.3142694 
C    -2.6465952    2.7253284    0.4110308 
C    -5.0324176    2.3020327   -0.4634387 
H    -4.8284713    3.3193125   -0.8685585 
H    -5.9062062    2.3928657    0.2171387 
H    -5.3532468    1.6807358   -1.3237815 
N    -3.4191284    0.3958569   -0.2066009 
H    -4.1213825    1.5906000    1.3757929 
H    -3.9347276    0.1126587   -1.0705159 
H    -2.4051832    0.3616456   -0.4725155 
O    -2.9016356    4.0834541    0.5531814 
O    -1.3322629    2.2853185    0.5078335 
H    -1.1542041    2.0027009    1.4605196 
