13
Energy =
C    -3.7049819    1.5854484    0.2212405 
C    -2.4078812    2.3696549    0.3924014 
C    -4.9119960    2.4932761   -0.0994011 
H    -4.6246738    3.5668444   -0.1659615 
H    -5.6909936    2.3922829    0.6856433 
H    -5.3777470    2.2165174   -1.0706116 
N    -3.6026561    0.5546134   -0.8245049 
H    -3.8864289    1.0899568    1.2056575 
H    -3.2696919    0.9944692   -1.7180695 
H    -2.8780199   -0.1517446   -0.5523084 
O    -2.0067446    3.2882312   -0.5689919 
O    -1.5957109    2.1427768    1.4945404 
H    -1.0517290    1.3073588    1.3354615 
