13
Energy =
C    -3.8173704    1.7493919    0.3475642 
C    -2.5554248    2.5965172    0.4706083 
C    -4.7324886    2.2260341   -0.7985604 
H    -4.8905476    1.4242844   -1.5520043 
H    -4.3066669    3.1050412   -1.3317902 
H    -5.7283307    2.5134694   -0.3998111 
N    -3.5171922    0.3219011    0.1479046 
H    -4.3602654    1.8751083    1.3152899 
H    -2.8387497    0.2280379   -0.6492070 
H    -3.0118018   -0.0374775    0.9923045 
O    -2.4277705    3.5153090    1.5037697 
O    -1.5370576    2.4834884   -0.4671186 
H    -0.8001188    3.1322560   -0.2196358 
