13
Energy =
C    -3.8269614    1.6381675    0.1538386 
C    -2.7922996    2.7267974    0.4413795 
C    -5.2121522    2.2306093   -0.1462052 
H    -5.5484912    2.8883818    0.6863452 
H    -5.9639559    1.4229925   -0.2744710 
H    -5.1793714    2.8314635   -1.0817104 
N    -3.4445135    0.7914396   -0.9871840 
H    -3.8827717    1.0267694    1.0854329 
H    -2.5092900    0.3565672   -0.7965337 
H    -4.1188221   -0.0061082   -1.0678456 
O    -3.0828743    3.7436995    1.3426298 
O    -1.5260665    2.6782958   -0.1274942 
H    -1.5643592    3.1503672   -1.0186837 
