13
Energy =
C    -3.9001685    1.7942771    0.3154733 
C    -2.5957251    2.5960848    0.3941977 
C    -4.9097997    2.4404293   -0.6490669 
H    -5.1368784    3.4825605   -0.3335047 
H    -5.8628579    1.8685883   -0.6635831 
H    -4.4993537    2.4720772   -1.6838615 
N    -3.6586981    0.4037573   -0.0974026 
H    -4.3335084    1.7826544    1.3419124 
H    -4.5611714   -0.1273345   -0.1215491 
H    -3.2560936    0.3801062   -1.0664294 
O    -1.6499911    2.4733563   -0.6181496 
O    -2.3620481    3.5139634    1.4204118 
H    -3.1305717    3.5691259    2.0708175 
