13
Energy =
C    -3.8777534    1.9219270    0.3419427 
C    -2.6012419    2.7741462    0.3777760 
C    -4.8592758    2.3081921   -0.8046182 
H    -5.1453821    1.4580504   -1.4568768 
H    -4.4347048    3.0838080   -1.4798646 
H    -5.7976050    2.7271302   -0.3813342 
N    -3.5324912    0.4852420    0.3026177 
H    -4.3966877    2.1513413    1.3033237 
H    -3.7761178    0.0310452    1.2143952 
H    -4.0327877   -0.0543868   -0.4403632 
O    -2.1107752    3.3683672   -0.7806724 
O    -1.8915632    2.9528817    1.5665599 
H    -2.2510320    2.3722290    2.3089173 
