13
Energy =
C    -3.5577033    1.5916934    0.1609781 
C    -2.4008317    2.5349837   -0.1648204 
C    -4.8791029    2.3454544    0.3505554 
H    -5.1717304    2.8317180   -0.6076162 
H    -4.7759172    3.1341993    1.1265422 
H    -5.6870156    1.6463447    0.6517025 
N    -3.7539861    0.5902403   -0.8968300 
H    -3.2915238    1.0841959    1.1172190 
H    -2.8342527    0.1374195   -1.1221869 
H    -4.3756118   -0.1724782   -0.5392029 
O    -2.6280084    3.7777398   -0.7431898 
O    -1.0944354    2.1470351    0.1038991 
H    -0.9099423    2.2645785    1.0886658 
