13
Energy =
C    -3.7338820    1.7009448    0.2878766 
C    -2.5416018    2.6672852    0.3669529 
C    -4.9624521    2.3463112   -0.3901400 
H    -5.3047556    1.7468864   -1.2637295 
H    -4.7394639    3.3660091   -0.7774781 
H    -5.8086270    2.4220601    0.3254154 
N    -3.4126979    0.4596391   -0.4356304 
H    -3.9842367    1.4524514    1.3467428 
H    -2.4998202    0.0700452   -0.0945692 
H    -4.1386977   -0.2639537   -0.2203485 
O    -1.3699964    2.4046821   -0.3334621 
O    -2.6062589    3.8184585    1.1526721 
H    -3.5003668    3.9110710    1.6111084 
