13
Energy =
C    -4.0696525    2.1531270    0.1142172 
C    -3.5537818    1.1121747    1.1002087 
C    -2.9270862    2.9004971   -0.6181289 
H    -3.0018444    2.8008532   -1.7224863 
H    -1.9239981    2.5170394   -0.3235074 
H    -2.9600649    3.9840469   -0.3735405 
N    -4.9881477    1.5567456   -0.8684953 
H    -4.6425872    2.8784248    0.7406399 
H    -5.3706466    2.3023349   -1.4970502 
H    -4.4717374    0.8659067   -1.4663879 
O    -2.8668552   -0.0110945    0.6469381 
O    -3.7143969    1.3099026    2.4671694 
H    -3.3179174    0.5230882    2.9639246 
