13
Energy =
C    -3.8175189    1.7793120    0.2668072 
C    -2.6274220    2.7527962    0.2770877 
C    -5.0191508    2.3412541   -0.5441964 
H    -5.8857114    2.5220476    0.1282353 
H    -5.3719620    1.6682748   -1.3528722 
H    -4.7687471    3.3105035   -1.0334285 
N    -3.4553711    0.4100699   -0.1747810 
H    -4.1259519    1.6956214    1.3349330 
H    -4.0252231    0.0596861   -0.9780486 
H    -2.4571130    0.3509382   -0.4939589 
O    -1.6501591    2.6674916   -0.7077640 
O    -2.5410383    3.7820021    1.2149334 
H    -3.3397998    3.8098038    1.8302861 
