13
Energy =
C    -3.8490897    1.8857914    0.3475466 
C    -2.5305134    2.6718721    0.3647367 
C    -4.9697914    2.5582314   -0.5003021 
H    -4.6057381    3.4599543   -1.0408297 
H    -5.8016265    2.8901207    0.1577616 
H    -5.4084630    1.8944838   -1.2729848 
N    -3.6071903    0.4908931   -0.0772837 
H    -4.1966494    1.8942839    1.4083364 
H    -3.7349892   -0.1599224    0.7333201 
H    -4.2501355    0.1559373   -0.8308895 
O    -2.1848843    3.5024400   -0.6965575 
O    -1.6383210    2.5528976    1.4318463 
H    -1.9169926    1.8275816    2.0750499 
