13
Energy =
C    -3.6505786    1.7552972    0.3010219 
C    -2.9065552    3.0747229    0.1292998 
C    -4.9762905    1.7539696   -0.4660219 
H    -4.7958527    1.9103280   -1.5524342 
H    -5.6393581    2.5675668   -0.0987730 
H    -5.4938828    0.7803120   -0.3284265 
N    -2.8671872    0.5871968   -0.1324737 
H    -3.8700269    1.6676995    1.3930779 
H    -2.6131699    0.6809509   -1.1456570 
H    -1.9718100    0.5446703    0.4107835 
O    -2.8490836    3.9741690    1.1833160 
O    -2.3224892    3.4162891   -1.0840537 
H    -1.4589480    2.9067121   -1.1906427 
