13
Energy =
C    -3.9888376    1.9578421    0.3523703 
C    -2.9196044    3.0433754    0.3762960 
C    -4.8123390    1.9793117   -0.9494453 
H    -5.6269525    1.2254998   -0.9056300 
H    -4.1589831    1.7595542   -1.8237587 
H    -5.2698750    2.9814368   -1.1032728 
N    -3.3837290    0.6274146    0.5578493 
H    -4.6783874    2.1978894    1.1967934 
H    -3.7198868    0.2256749    1.4650461 
H    -3.6505325   -0.0588686   -0.1876242 
O    -2.2846369    3.4471078   -0.7936937 
O    -2.5346534    3.6096409    1.5845651 
H    -1.8499513    3.0044027    2.0146140 
