13
Energy =
C    -3.6299827    1.5699493    0.2289472 
C    -2.3914257    2.4574378    0.2279458 
C    -4.9240947    2.3914289    0.0895705 
H    -5.0061009    3.1361959    0.9109034 
H    -5.8152661    1.7291055    0.1334342 
H    -4.9344118    2.9386472   -0.8804794 
N    -3.5755872    0.5640029   -0.8424838 
H    -3.6206771    1.0472450    1.2152047 
H    -4.4356480   -0.0329744   -0.8236978 
H    -3.5390642    1.0387922   -1.7779043 
O    -2.0042759    3.1240619   -0.9283206 
O    -1.6977326    2.6910247    1.4084330 
H    -2.2023185    3.3704416    1.9575713 
