13
Energy =
C    -3.6307330    1.6288308    0.1891768 
C    -2.5233970    2.6731766    0.0469226 
C    -5.0103772    2.2724236    0.4532534 
H    -4.9696422    3.3832356    0.4018855 
H    -5.3773334    1.9969807    1.4650756 
H    -5.7683072    1.9406310   -0.2902612 
N    -3.7438525    0.7613721   -0.9957180 
H    -3.3326458    1.0187581    1.0754545 
H    -2.8010548    0.3632000   -1.2286698 
H    -4.3495302   -0.0602494   -0.7603711 
O    -2.3224834    3.6098781    1.0524008 
O    -1.6773202    2.6788826   -1.0543773 
H    -2.1103170    3.2298749   -1.7806171 
