13
Energy =
C    -3.9436738    1.9970411    0.3682933 
C    -2.6343589    2.7886971    0.4928861 
C    -4.7430907    2.3638563   -0.8989164 
H    -4.1524431    2.1230539   -1.8115143 
H    -4.9706511    3.4528956   -0.9134933 
H    -5.7063350    1.8112101   -0.9316278 
N    -3.6901211    0.5415012    0.3970277 
H    -4.5502185    2.3007791    1.2545365 
H    -4.0335627    0.1400500    1.3016319 
H    -4.1978890    0.0249142   -0.3606564 
O    -2.3747105    3.8540036   -0.3636322 
O    -1.7184825    2.5174396    1.5098330 
H    -1.9771593    1.6921003    2.0291686 
