13
Energy =
C    -3.7661993    1.7819816    0.3756104 
C    -2.5719690    2.7258934    0.3299844 
C    -4.9157773    2.2709010   -0.5138822 
H    -5.7983243    1.6056079   -0.4105949 
H    -4.5914465    2.2642138   -1.5791894 
H    -5.2117693    3.3066247   -0.2403406 
N    -3.4027271    0.4229447   -0.0531527 
H    -4.0994907    1.7745425    1.4411352 
H    -2.5740216    0.0973682    0.5017652 
H    -4.1840803   -0.2334224    0.1813937 
O    -2.2298731    3.4019410   -0.8372018 
O    -1.7950227    2.9026201    1.4673345 
H    -1.0398583    3.5394284    1.2463971 
