13
Energy =
C    -3.7478462    1.7302685    0.3770262 
C    -2.6393496    2.7811176    0.3976221 
C    -5.0125308    2.2170296   -0.3665990 
H    -5.8638463    2.3168308    0.3394786 
H    -5.3087499    1.5077590   -1.1699553 
H    -4.8588906    3.2034822   -0.8583981 
N    -3.2934039    0.4709199   -0.2342156 
H    -4.0088364    1.5503367    1.4477633 
H    -2.4225039    0.1403782    0.2458006 
H    -4.0116792   -0.2725202   -0.0627332 
O    -2.3389109    3.5291555   -0.7348461 
O    -1.8847877    2.9681297    1.5488242 
H    -1.1848477    2.2429247    1.6029986 
