13
Energy =
C    -3.9652198    1.6765323    0.2132470 
C    -2.6988389    2.0760063    0.9731138 
C    -4.3754517    2.7127121   -0.8634416 
H    -4.4557863    2.2575289   -1.8744391 
H    -3.6468822    3.5524656   -0.9327347 
H    -5.3664287    3.1516254   -0.6158757 
N    -3.8521914    0.3381319   -0.3903188 
H    -4.7526891    1.6406929    1.0064131 
H    -4.7951277    0.0202581   -0.7213790 
H    -3.2222623    0.3535971   -1.2263454 
O    -2.8099403    2.5042222    2.2900948 
O    -1.4457280    2.1086436    0.3622051 
H    -1.4869237    1.7428409   -0.5755257 
