13
Energy =
C    -3.7273324    1.7445983    0.3477376 
C    -2.4473405    2.5723742    0.3744824 
C    -4.8022772    2.4123794   -0.5160024 
H    -5.7430846    1.8228874   -0.4892170 
H    -4.4530314    2.4613529   -1.5731572 
H    -5.0155394    3.4430552   -0.1600507 
N    -3.4968610    0.3929016   -0.1836283 
H    -4.0809131    1.6845326    1.4050314 
H    -2.6763150   -0.0428484    0.3035406 
H    -4.3239412   -0.2118975    0.0320822 
O    -1.7302069    2.8124339   -0.7899762 
O    -2.0058332    3.1308844    1.5670560 
H    -2.5630671    3.9458019    1.7763692 
