13
Energy =
C    -3.6851288    1.6377544    0.2906345 
C    -2.4774191    2.5849321    0.2990919 
C    -4.9724121    2.3502018   -0.1445114 
H    -5.8425602    1.6645655   -0.0718614 
H    -4.8767848    2.6854578   -1.2022969 
H    -5.1651123    3.2415076    0.4914482 
N    -3.4773895    0.4939839   -0.6100549 
H    -3.8180233    1.2795518    1.3382502 
H    -2.5740429    0.0151231   -0.3787612 
H    -4.2317137   -0.2165294   -0.4539385 
O    -2.5055402    3.7671239   -0.4334796 
O    -1.3314498    2.2813257    1.0348623 
H    -1.4053015    1.3875684    1.4964154 
