13
Energy =
C    -3.7659363    1.7628332    0.3397646 
C    -2.3702710    2.3911878    0.2790273 
C    -4.8739705    2.6748460   -0.2285011 
H    -5.5927092    2.9475082    0.5745284 
H    -5.4562618    2.1618091   -1.0256920 
H    -4.4694245    3.6222360   -0.6474314 
N    -3.8309968    0.4574372   -0.3385791 
H    -3.9670611    1.6087271    1.4290669 
H    -3.4591288    0.5338468   -1.3154188 
H    -3.2037891   -0.2187694    0.1611721 
O    -1.6309104    2.5099604    1.4475859 
O    -1.8052711    2.8246047   -0.9206671 
H    -2.4359760    2.7103763   -1.6982539 
