13
Energy =
C    -3.6092870    1.6443090    0.2845069 
C    -2.5702411    2.7616130    0.1474222 
C    -5.0441066    2.1758729    0.1729050 
H    -5.1988268    2.6266026   -0.8327404 
H    -5.2432048    2.9523251    0.9421219 
H    -5.7759978    1.3516335    0.3053025 
N    -3.4434859    0.6043221   -0.7425786 
H    -3.4603956    1.2029127    1.2970740 
H    -2.4455666    0.2794087   -0.7587034 
H    -4.0121368   -0.2348014   -0.4799521 
O    -1.2550881    2.4561510   -0.1809726 
O    -2.8828293    4.0716515    0.4951741 
H    -2.8875458    4.1534019    1.5009400 
