13
Energy =
C    -3.6490543    1.7176295    0.2559331 
C    -2.5879717    2.8115573    0.2316821 
C    -5.0521948    2.2682349   -0.0209939 
H    -5.3242135    3.0413619    0.7302257 
H    -5.7978858    1.4456277    0.0217011 
H    -5.0947744    2.7327053   -1.0302800 
N    -3.3793950    0.6394418   -0.7079137 
H    -3.6293723    1.2999056    1.2921216 
H    -3.3132066    1.0314948   -1.6773636 
H    -2.4504119    0.2034263   -0.4896547 
O    -1.6273048    2.8607558    1.2304447 
O    -2.5404379    3.7410157   -0.7993442 
H    -2.1291250    3.3090865   -1.6124285 
