13
Energy =
C    -3.6250868    1.6842285    0.2595388 
C    -2.4216158    2.6304424    0.1218853 
C    -4.9626806    2.4396968    0.1353666 
H    -4.8151865    3.5160055   -0.1076907 
H    -5.5408149    2.3716145    1.0810885 
H    -5.5904506    2.0112566   -0.6783514 
N    -3.6370012    0.5831276   -0.7264974 
H    -3.5467298    1.2569793    1.2883655 
H    -2.7707235    0.5729708   -1.3195483 
H    -3.6709998   -0.3407175   -0.2345941 
O    -1.7950544    2.7998625   -1.1067864 
O    -1.9713622    3.3822544    1.2070879 
H    -2.5417343    3.2515732    2.0287230 
