13
Energy =
C    -3.6920012    1.7958338    0.3477105 
C    -2.7255898    2.9574341    0.1456881 
C    -4.9069149    1.8697289   -0.6037072 
H    -5.0197454    0.9330824   -1.1913721 
H    -4.8108019    2.6990950   -1.3402228 
H    -5.8410956    2.0326321   -0.0258814 
N    -3.0197344    0.4998363    0.1631968 
H    -4.0498084    1.8849285    1.4023200 
H    -2.1871767    0.4534930    0.8000286 
H    -3.6599228   -0.2641178    0.4864751 
O    -2.1665051    3.5904834    1.2468161 
O    -2.3317899    3.3458243   -1.1277708 
H    -1.5731806    2.7456206   -1.4162639 
