13
Energy =
C    -3.5922241    1.6919337    0.2822533 
C    -2.5473911    2.7835228    0.0103090 
C    -5.0427713    2.2037760    0.1535497 
H    -5.6033336    1.6328310   -0.6193985 
H    -5.0901250    3.2744008   -0.1460828 
H    -5.5820985    2.0889144    1.1169680 
N    -3.4623132    0.5113636   -0.5976181 
H    -3.4117409    1.3935012    1.3425378 
H    -2.6074174    0.5631058   -1.2047330 
H    -3.3540059   -0.3524346   -0.0157222 
O    -1.2775484    2.4476371   -0.4416532 
O    -2.7969737    4.1040556    0.3646821 
H    -2.6890715    4.2029502    1.3633745 
