13
Energy =
C    -3.8729234    1.6318310    0.1586367 
C    -3.0915862    2.5642615    1.1211621 
C    -4.7631120    2.2532480   -0.9736680 
H    -4.4663504    1.9533618   -1.9988591 
H    -4.7666538    3.3621740   -1.0003193 
H    -5.8183298    1.9322171   -0.8394952 
N    -2.9562230    0.6317440   -0.4212344 
H    -4.5630866    1.1103911    0.8704766 
H    -3.1730193   -0.3202048   -0.0419777 
H    -2.9835904    0.5567947   -1.4631797 
O    -2.3437863    1.9689410    2.1318347 
O    -3.1442422    3.9664852    1.0979097 
H    -3.7412680    4.3943494    0.4175533 
