13
Energy =
C    -3.6401875    1.6343745    0.2592536 
C    -2.4059601    2.5281159    0.0774027 
C    -4.9652716    2.4014228    0.0942664 
H    -5.0416506    2.8374374   -0.9259776 
H    -5.0222796    3.2382869    0.8262064 
H    -5.8337573    1.7309161    0.2669839 
N    -3.6336179    0.4904944   -0.6673557 
H    -3.5700324    1.2588396    1.3074030 
H    -4.4364117   -0.1474255   -0.4496111 
H    -3.7648836    0.8258983   -1.6532330 
O    -2.5237514    3.9079995    0.1979784 
O    -1.1387249    1.9853735   -0.1268950 
H    -1.1836913    0.9791944   -0.1971417 
