13
Energy =
C    -3.6021951    1.7161094    0.2956523 
C    -2.5438065    2.7911741    0.0649537 
C    -5.0139631    2.2581077    0.0726101 
H    -5.7650736    1.4697806    0.2882788 
H    -5.1246069    2.5702621   -0.9899456 
H    -5.2065092    3.1376849    0.7230102 
N    -3.4393465    0.5428129   -0.5842462 
H    -3.4977559    1.4190136    1.3672107 
H    -2.5541434    0.6070830   -1.1440892 
H    -3.3535868   -0.3225954   -0.0009862 
O    -1.3867843    2.7982678    0.8332083 
O    -2.6999507    3.7473250   -0.9310744 
H    -1.8823117    4.3436768   -0.9361076 
