13
Energy =
C    -3.8788325    1.8367448    0.3647962 
C    -2.5979957    2.6783343    0.4770567 
C    -4.9384835    2.4125571   -0.6122336 
H    -5.2357711    1.6778363   -1.3912042 
H    -4.5771282    3.3199915   -1.1455901 
H    -5.8571826    2.7010104   -0.0571389 
N    -3.5674756    0.4476426   -0.0006486 
H    -4.3210593    1.8382928    1.3882681 
H    -4.4425685   -0.1285374    0.0148239 
H    -3.1839097    0.4157362   -0.9769507 
O    -2.1889330    3.4837973   -0.5809594 
O    -1.7960497    2.6190019    1.6168883 
H    -2.1085106    1.8984496    2.2514026 
