13
Energy =
C    -3.6871485    1.5850044    0.1653578 
C    -2.4563120    2.4903369    0.1218771 
C    -5.0134055    2.3904273    0.0648083 
H    -5.5796874    2.3074748    1.0184989 
H    -5.6913928    2.0446532   -0.7424635 
H    -4.8285652    3.4732863   -0.1104389 
N    -3.6379499    0.4845529   -0.8286543 
H    -3.6347297    1.1196760    1.1795938 
H    -4.4712936    0.4465555   -1.4582070 
H    -2.8067877    0.5754660   -1.4643772 
O    -1.9003717    2.9605607    1.3036957 
O    -1.9311771    2.9188271   -1.0911761 
H    -2.4735172    3.7034932   -1.4204844 
