13
Energy =
C    -3.8664583    1.7870286    0.3147743 
C    -2.6545011    2.7250393    0.3601053 
C    -4.9632777    2.3167809   -0.6252608 
H    -5.8493584    1.6457561   -0.6147929 
H    -4.5843498    2.3875737   -1.6700842 
H    -5.2932646    3.3299650   -0.3061963 
N    -3.4865802    0.4290861   -0.1023240 
H    -4.2708921    1.7325781    1.3515604 
H    -4.3268763   -0.1962340   -0.1034993 
H    -3.1078668    0.4452816   -1.0810892 
O    -1.7291101    2.7047614   -0.6779398 
O    -2.4931409    3.6630993    1.3819905 
H    -3.2442225    3.6343390    2.0540745 
