13
Energy =
C    -4.0110198    1.8758456    0.2503869 
C    -2.7382608    2.6970265    0.5251925 
C    -4.5967774    2.1247610   -1.1624842 
H    -4.5960507    3.2224030   -1.4075764 
H    -5.6375406    1.7425504   -1.2301037 
H    -3.9761843    1.6255205   -1.9385537 
N    -3.7956629    0.4348123    0.3996372 
H    -4.7256282    2.2105954    1.0459936 
H    -4.6759583   -0.0839283    0.1702763 
H    -3.0629692    0.1123895   -0.2778877 
O    -1.4886320    2.0877113    0.5775904 
O    -2.8225306    4.0909187    0.6035420 
H    -3.7760297    4.4302968    0.6013385 
