13
Energy =
C    -3.6543714    1.4320639    0.1534792 
C    -2.3405170    2.2067078    0.1709340 
C    -4.8725319    2.3632155    0.2814202 
H    -5.8130888    1.7722720    0.3069471 
H    -4.9171037    3.0665629   -0.5806434 
H    -4.8139931    2.9599184    1.2174918 
N    -3.7864416    0.6220664   -1.0660709 
H    -3.6221404    0.7479155    1.0335642 
H    -4.6812536    0.0786739   -1.0423779 
H    -3.8142513    1.2448480   -1.9101087 
O    -2.0331217    3.0920019   -0.8559002 
O    -1.4841354    2.1112293    1.2607175 
H    -1.8298649    2.7016763    2.0017343 
