13
Energy =
C    -3.6578930    1.7702103    0.2359344 
C    -2.5808694    2.8257818   -0.1211036 
C    -5.1599202    2.1646869    0.1565322 
H    -5.3777029    3.1827536   -0.1986987 
H    -5.6343954    2.0558866    1.1556550 
H    -5.7118787    1.4925803   -0.5384134 
N    -3.4808477    0.5407640   -0.5572992 
H    -3.4321554    1.5347487    1.3036625 
H    -2.4762942    0.2380086   -0.5284602 
H    -4.0191417   -0.2392436   -0.1103798 
O    -1.2507649    2.4313160   -0.0282564 
O    -2.8207082    4.1624916   -0.4567694 
H    -3.7823253    4.4319683   -0.4927594 
