13
Energy =
C    -3.5622411    1.6684748    0.2696430 
C    -2.5625544    2.7000573   -0.2723297 
C    -4.9164622    2.2984942    0.6593201 
H    -4.9500403    3.3918298    0.4552722 
H    -5.1217490    2.1401993    1.7385476 
H    -5.7523917    1.8418324    0.0849308 
N    -3.8425067    0.5599206   -0.6671287 
H    -3.0774729    1.2674354    1.1911222 
H    -3.2317805    0.5998596   -1.5200180 
H    -3.6340615   -0.3549135   -0.2025421 
O    -1.5651601    2.3199572   -1.1609326 
O    -2.5372131    3.9930887    0.2368757 
H    -2.1061013    3.9794006    1.1493342 
