13
Energy =
C    -3.8182599    1.7153834    0.3219462 
C    -2.5913166    2.6000872    0.5502757 
C    -4.7815904    2.2929830   -0.7205147 
H    -5.1622471    3.2849694   -0.3934320 
H    -5.6449275    1.6074964   -0.8595323 
H    -4.2673725    2.4180246   -1.6980333 
N    -3.4612871    0.3535683   -0.1031431 
H    -4.3528657    1.6644531    1.2983181 
H    -2.8131795    0.4008480   -0.9267059 
H    -2.9140172   -0.1094963    0.6621145 
O    -2.5624539    3.9112946    0.0914752 
O    -1.5146944    2.1217735    1.2854621 
H    -1.7285191    2.1963705    2.2691761 
