13
Energy =
C    -3.6394652    1.7228133    0.2473504 
C    -2.5721958    2.7533014   -0.1159716 
C    -5.0754541    2.2997292    0.1040686 
H    -5.5702929    2.3392246    1.0983752 
H    -5.7325046    1.7095386   -0.5663379 
H    -5.0604522    3.3367671   -0.3006973 
N    -3.4858943    0.4403164   -0.4838664 
H    -3.4529929    1.5156922    1.3281886 
H    -4.3301157    0.1752679   -1.0393780 
H    -2.7087774    0.4985747   -1.1876197 
O    -1.9731712    3.5148302    0.8805021 
O    -2.2236263    2.9758788   -1.4432561 
H    -1.5256966    3.7079526   -1.4789280 
