13
Energy =
C    -3.8378562    1.7590676    0.4107177 
C    -2.5013286    2.4895814    0.4837887 
C    -4.7026475    2.2388775   -0.7723932 
H    -5.6691278    2.6418515   -0.4024393 
H    -4.9317843    1.4051054   -1.4708853 
H    -4.1971075    3.0364041   -1.3611625 
N    -3.6737413    0.2994326    0.3123981 
H    -4.3696905    2.0003646    1.3624367 
H    -3.0019140    0.0840600   -0.4665409 
H    -3.2159531   -0.0488670    1.1881049 
O    -2.2613537    3.4100933    1.4962015 
O    -1.5243696    2.2634734   -0.4784456 
H    -0.7195885    2.8403113   -0.2674044 
