13
Energy =
C    -3.8852704    1.7293386    0.2265083 
C    -2.7405370    2.7308572    0.3500036 
C    -4.9749745    2.2065770   -0.7436791 
H    -5.3521384    3.2091813   -0.4471275 
H    -5.8270385    1.4948706   -0.7577190 
H    -4.5549355    2.2787157   -1.7725019 
N    -3.4060253    0.4174249   -0.2309282 
H    -4.3243987    1.6393728    1.2484002 
H    -2.6606169    0.0777976    0.4235068 
H    -4.1870867   -0.2768357   -0.1646174 
O    -2.0341814    2.8220560    1.5448278 
O    -2.3683465    3.5389161   -0.7197254 
H    -1.5746802    4.1007428   -0.4430503 
