13
Energy =
C    -3.9379363    1.7498718    0.2689181 
C    -2.6952792    2.4270015    0.8549923 
C    -4.4374332    2.4613912   -1.0196965 
H    -5.4286673    2.9293654   -0.8333902 
H    -4.5577950    1.7813171   -1.8876362 
H    -3.7471213    3.2749194   -1.3390339 
N    -3.7621342    0.2929741    0.0598866 
H    -4.7134831    1.8769025    1.0628811 
H    -4.0192818   -0.0446463   -0.8961769 
H    -2.7789238   -0.0195339    0.2465297 
O    -2.7980512    3.1195133    2.0545046 
O    -1.4724922    2.4169552    0.1838358 
H    -1.5244445    1.8827087   -0.6707714 
