13
Energy =
C    -3.6563229    1.5769167    0.2235876 
C    -2.3898892    2.4428417    0.2085807 
C    -4.9466849    2.4194040    0.1359289 
H    -5.5542098    2.1417748   -0.7539060 
H    -4.7336450    3.5096136    0.0640051 
H    -5.5811702    2.2484577    1.0316537 
N    -3.6786477    0.5725756   -0.8526167 
H    -3.6454887    1.0391325    1.2009167 
H    -3.5688567    1.0510727   -1.7806133 
H    -2.8431249   -0.0540734   -0.7581938 
O    -1.6187870    2.5334741   -0.9440138 
O    -2.0129741    3.1844617    1.3276488 
H    -2.6591549    3.0699355    2.0943696 
