13
Energy =
C    -3.7038075    1.6822205    0.3120207 
C    -2.6811666    2.8134086    0.3092755 
C    -5.0975447    2.1425770   -0.1675441 
H    -5.4314727    1.5679528   -1.0591966 
H    -5.1103387    3.2206549   -0.4457075 
H    -5.8530624    1.9853720    0.6313623 
N    -3.2763728    0.5395460   -0.5119865 
H    -3.7860069    1.3549194    1.3768597 
H    -3.0630061    0.8727402   -1.4850288 
H    -2.3831841    0.1451326   -0.1318509 
O    -2.4241644    3.5276853   -0.8535688 
O    -1.9742774    3.1183749    1.4640154 
H    -1.2193680    2.4571921    1.5736882 
