13
Energy =
C    -3.6886014    1.6507104    0.2238132 
C    -2.4182838    2.4701019   -0.0025990 
C    -4.9769870    2.5048911    0.0556556 
H    -5.7081067    2.0820482   -0.6637753 
H    -4.7475585    3.5380846   -0.2868872 
H    -5.5015124    2.5950902    1.0323047 
N    -3.7400362    0.4147444   -0.5954939 
H    -3.6114689    1.3377938    1.2934351 
H    -4.6027566    0.3308145   -1.1793892 
H    -2.9361191    0.3647963   -1.2696445 
O    -1.7856568    3.0782488    1.0729658 
O    -1.9297885    2.6849519   -1.2855957 
H    -2.4473642    3.4415619   -1.7074526 
