13
Energy =
C    -3.6788948    1.7265079    0.3401741 
C    -2.5231347    2.6849101    0.0912859 
C    -4.9817748    2.2203395   -0.3155264 
H    -5.2448133    3.2328544    0.0606315 
H    -5.8200310    1.5295574   -0.0841682 
H    -4.8511020    2.2827165   -1.4197940 
N    -3.3441317    0.3695578   -0.1353595 
H    -3.8270734    1.7186575    1.4467554 
H    -3.3074878   -0.2901490    0.6769347 
H    -4.0505782   -0.0119765   -0.8077051 
O    -1.6932204    3.0620723    1.1417846 
O    -2.2853119    3.2037957   -1.1769845 
H    -1.4597957    3.7859069   -1.1337259 
