13
Energy =
C    -3.6557308    1.6837184    0.2768618 
C    -2.5414236    2.7208264    0.1670722 
C    -5.0268254    2.2729724   -0.0719759 
H    -5.0271324    2.5961852   -1.1370580 
H    -5.2436021    3.1595399    0.5618182 
H    -5.8262286    1.5173379    0.0742482 
N    -3.4182925    0.5329393   -0.6074876 
H    -3.6601679    1.3527281    1.3420745 
H    -2.4491224    0.1661696   -0.4404516 
H    -4.0682923   -0.2438193   -0.3419401 
O    -1.3092571    2.4721833    0.7600132 
O    -2.7320843    3.9169565   -0.5164148 
H    -1.8671615    4.4413560   -0.4907322 
