13
Energy =
C    -3.6575032    1.5239643    0.1804084 
C    -2.3496445    2.3093531    0.2111069 
C    -4.8988381    2.4399666    0.1256309 
H    -4.6264008    3.5191876    0.1280424 
H    -5.5622375    2.2443988    0.9947470 
H    -5.4964131    2.2568647   -0.7945916 
N    -3.7169331    0.5842327   -0.9505176 
H    -3.6843437    0.9400803    1.1319266 
H    -3.5429754    1.1060719   -1.8447869 
H    -2.9343432   -0.1087800   -0.8648497 
O    -2.0050103    3.1426349   -0.8447986 
O    -1.5037840    2.2168107    1.3074381 
H    -1.8500005    2.8142337    2.0437357 
