13
Energy =
C    -3.8882320    1.8530454    0.3536013 
C    -2.5078927    2.5499577    0.2943639 
C    -4.9427544    2.3150186   -0.6867395 
H    -4.5851311    2.1002098   -1.7173210 
H    -5.1422298    3.4130413   -0.6243688 
H    -5.9098556    1.7918328   -0.5281188 
N    -3.7530682    0.3990609    0.2174086 
H    -4.2456182    2.0754247    1.3897627 
H    -4.6831223   -0.0668127    0.3362165 
H    -3.4065498    0.1633818   -0.7437088 
O    -1.4361390    1.9761462    0.9693999 
O    -2.3139197    3.8006467   -0.3078450 
H    -3.1017652    4.1553579   -0.8232466 
