13
Energy =
C    -3.7724887    1.7911193    0.3759885 
C    -2.5783016    2.7355867    0.3446165 
C    -4.8924796    2.2542022   -0.5636531 
H    -5.1987368    3.2960261   -0.3270774 
H    -5.7771164    1.5899295   -0.4724505 
H    -4.5329287    2.2205980   -1.6170744 
N    -3.3936804    0.4218546   -0.0041210 
H    -4.1408525    1.8113864    1.4297226 
H    -2.5831970    0.1129602    0.5861097 
H    -4.1815345   -0.2295332    0.2223684 
O    -2.1977854    3.3800434   -0.8285216 
O    -1.8399721    2.9445282    1.5020477 
H    -1.0784526    3.5765348    1.2892507 
