13
Energy =
C    -3.6924358    1.6906048    0.2943423 
C    -2.4800898    2.6124983    0.1267684 
C    -5.0222146    2.3315926   -0.1795022 
H    -5.7172053    2.4526146    0.6804894 
H    -5.5438870    1.7112674   -0.9406725 
H    -4.8650568    3.3421531   -0.6207366 
N    -3.4967667    0.3940207   -0.3744734 
H    -3.7453933    1.5134206    1.3974529 
H    -4.2603453   -0.2657631   -0.0900849 
H    -3.5495296    0.4963964   -1.4154688 
O    -1.8231400    3.0820425    1.2575662 
O    -2.0483947    3.0435793   -1.1275277 
H    -2.5931171    2.6243268   -1.8638185 
