13
Energy =
C    -3.6037463    1.6400760    0.2790226 
C    -2.5796480    2.7678573    0.1170079 
C    -5.0460832    2.1606723    0.2305313 
H    -5.7654848    1.3282686    0.3793676 
H    -5.2433826    2.6239709   -0.7618649 
H    -5.2215810    2.9243625    1.0180238 
N    -3.4695191    0.6153013   -0.7677824 
H    -3.4122662    1.1863879    1.2788992 
H    -2.4704815    0.2987977   -0.8263566 
H    -4.0211739   -0.2318840   -0.4949561 
O    -1.2741943    2.4769522   -0.2597756 
O    -2.8910317    4.0719405    0.4875486 
H    -2.8612510    4.1445846    1.4935801 
