13
Energy =
C    -3.9077681    1.7269858    0.4081826 
C    -2.4090969    1.9906122    0.4721487 
C    -4.6463118    2.7381732   -0.5130620 
H    -5.3572671    3.3481488    0.0845065 
H    -5.2257604    2.2583575   -1.3276520 
H    -3.9370746    3.4407106   -1.0060935 
N    -4.1709845    0.3272260    0.0116345 
H    -4.2673187    1.8885349    1.4536258 
H    -4.6154658   -0.1902270    0.8066040 
H    -4.8087863    0.2262078   -0.8104369 
O    -1.6440563    2.0299836   -0.6911646 
O    -1.7982731    2.2283646    1.6996518 
H    -0.8065448    2.3657276    1.5556854 
