13
Energy =
C    -3.6651879    1.6610408    0.3234782 
C    -2.4438096    2.5524543    0.1153497 
C    -4.9644045    2.3641089   -0.1141134 
H    -5.8452356    1.7265358    0.1118963 
H    -4.9379848    2.5788797   -1.2050016 
H    -5.0829612    3.3298590    0.4270567 
N    -3.5244940    0.3692376   -0.3783883 
H    -3.7132469    1.4929554    1.4248385 
H    -3.5092973   -0.4135325    0.3160032 
H    -4.3087707    0.1771286   -1.0446617 
O    -2.4498052    3.8546071    0.6064079 
O    -1.2942693    2.0791499   -0.5060410 
H    -0.6089244    2.8212239   -0.5270018 
