13
Energy =
C    -3.8079291    1.7145321    0.3414221 
C    -2.4551363    2.4169504    0.5224564 
C    -4.7938425    2.5538724   -0.4974138 
H    -4.3509625    3.5220422   -0.8221681 
H    -5.7108235    2.7739431    0.0895526 
H    -5.1095912    2.0105953   -1.4150992 
N    -3.6667959    0.3919152   -0.2870619 
H    -4.2544210    1.5717168    1.3519638 
H    -3.1152053    0.4831730   -1.1763861 
H    -3.1033302   -0.2297427    0.3411910 
O    -1.6770442    2.6911557   -0.5958240 
O    -1.9827448    2.8013185    1.7779069 
H    -2.6159898    2.5579893    2.5241902 
