13
Energy =
C    -3.6003837    1.5781569    0.2428224 
C    -2.4785766    2.6027408    0.1293224 
C    -5.0113311    2.2331735    0.2429816 
H    -5.6770893    1.8585464   -0.5605167 
H    -4.9498806    3.3367381    0.1031735 
H    -5.5194605    2.0466160    1.2129920 
N    -3.4710238    0.5511120   -0.8128910 
H    -3.4399477    1.1058921    1.2423296 
H    -3.2424246   -0.3759209   -0.3827895 
H    -4.3338405    0.4174268   -1.3871762 
O    -2.5326299    3.6225556   -0.8165049 
O    -1.3879542    2.5367118    0.9873825 
H    -0.7435378    3.2766223    0.7412345 
