13
Energy =
C    -3.6521254    1.6412819    0.1543094 
C    -2.4103984    2.4984820   -0.0641860 
C    -4.9291420    2.4815943    0.3525460 
H    -5.7943874    1.8282585    0.5933221 
H    -5.1539978    3.0612652   -0.5705721 
H    -4.7918046    3.2083787    1.1839631 
N    -3.8332863    0.6944424   -0.9646183 
H    -3.4513064    1.0857045    1.1017668 
H    -3.6914206   -0.2855850   -0.6226899 
H    -4.7988654    0.7290840   -1.3707414 
O    -2.5085899    3.8625556   -0.3148133 
O    -1.1535469    1.9127275   -0.0259862 
H    -0.9717468    1.5146073   -0.9355386 
