13
Energy =
C    -3.8298098    1.7321672    0.2701304 
C    -2.6716259    2.6805006    0.6040856 
C    -4.8620311    2.3910315   -0.6872893 
H    -4.5380392    3.4091083   -1.0030800 
H    -5.8444645    2.4974683   -0.1786793 
H    -5.0359638    1.8200037   -1.6226599 
N    -3.3202915    0.4556679   -0.2737558 
H    -4.3423144    1.5269519    1.2397096 
H    -3.5051960   -0.3257772    0.3986789 
H    -3.7441287    0.1760462   -1.1875288 
O    -1.5649286    2.7508849   -0.2344886 
O    -2.7379812    3.5502216    1.6954095 
H    -3.6115744    3.4752003    2.1936892 
