13
Energy =
C    -3.7635046    1.7869274    0.3554029 
C    -2.3812279    2.4775468    0.3049821 
C    -5.0056206    2.5180842   -0.2173822 
H    -5.7694493    2.6394238    0.5808519 
H    -5.4875277    1.9123264   -1.0172946 
H    -4.8293521    3.5146736   -0.6484680 
N    -3.7207154    0.4474348   -0.2547224 
H    -3.9394937    1.6585097    1.4508762 
H    -3.3163930    0.5162322   -1.2202312 
H    -3.0590884   -0.1583079    0.2906055 
O    -1.3079355    1.7840252    0.8487575 
O    -2.1171243    3.7431799   -0.2256049 
H    -2.9136518    4.2485119   -0.5565455 
