13
Energy =
C    -3.4707722    1.5501328    0.1164507 
C    -2.5848104    2.7257141   -0.2907449 
C    -4.7852195    2.0155508    0.7524349 
H    -4.5906428    2.6831774    1.6191711 
H    -5.3817991    1.1441998    1.0943321 
H    -5.3846329    2.5779238    0.0011307 
N    -3.8021593    0.6951351   -1.0329327 
H    -2.8902792    0.9664608    0.8688148 
H    -2.9254228    0.4718513   -1.5661689 
H    -4.1744204   -0.2204783   -0.6875606 
O    -3.1306198    3.9708997   -0.5786705 
O    -1.2110516    2.5499543   -0.3977559 
H    -0.7986313    2.5823242    0.5227139 
