13
Energy =
C    -4.0491334    2.1704593    0.1839854 
C    -2.7695093    3.0150610    0.0768141 
C    -4.6708283    1.8651680   -1.1947401 
H    -3.9655620    1.2657766   -1.8129843 
H    -4.8942681    2.8086731   -1.7407471 
H    -5.6230743    1.3034478   -1.0833670 
N    -3.8079334    0.9050944    0.9098957 
H    -4.7660895    2.8115547    0.7505404 
H    -4.2508126    0.9526957    1.8581852 
H    -4.2359295    0.0753156    0.4331384 
O    -2.5652809    3.8229252   -1.0370553 
O    -1.8473605    3.0910126    1.1221380 
H    -2.0685705    2.4450121    1.8642329 
