13
Energy =
C    -3.5933658    1.7425745    0.3155940 
C    -2.6543540    2.9232933    0.0575231 
C    -4.9904521    1.9292636   -0.3157990 
H    -5.0655404    2.8671911   -0.9098278 
H    -5.7669129    1.9723717    0.4781658 
H    -5.2514409    1.0780342   -0.9828936 
N    -3.0340924    0.4577077   -0.1372906 
H    -3.7104385    1.7075728    1.4275817 
H    -2.7721431    0.5065468   -1.1504481 
H    -2.1477536    0.2609229    0.3887128 
O    -2.1272517    3.6157478    1.1389200 
O    -2.3190180    3.3339519   -1.2327068 
H    -2.7458568    2.7521558   -1.9367010 
