13
Energy =
C    -3.9090497    1.8919551    0.3218664 
C    -2.8101482    2.9493134    0.2579354 
C    -5.0218844    2.1800406   -0.7018192 
H    -4.6172446    2.1352540   -1.7377589 
H    -5.4479272    3.1950956   -0.5388650 
H    -5.8421028    1.4370844   -0.5999063 
N    -3.4008336    0.5107548    0.1518887 
H    -4.3470307    1.9784178    1.3441413 
H    -3.8125017    0.0350035   -0.6860346 
H    -2.3636836    0.4997124   -0.0094334 
O    -1.9741718    3.0282038   -0.8485169 
O    -2.6405937    3.8461463    1.3035604 
H    -2.1057530    3.3998555    2.0345709 
