13
Energy =
C    -3.7055045    1.6877555    0.3082964 
C    -2.5890624    2.7309490    0.2338323 
C    -5.0715769    2.2520162   -0.1745731 
H    -5.7945256    2.2703725    0.6686676 
H    -5.5351420    1.6688069   -0.9957287 
H    -4.9736455    3.2983617   -0.5458254 
N    -3.3382891    0.4561825   -0.4223541 
H    -3.7961642    1.4542488    1.3951164 
H    -3.2329978   -0.3421898    0.2469065 
H    -4.0298705    0.1600338   -1.1477396 
O    -1.3371715    2.4146674   -0.2803642 
O    -2.7942318    4.0020567    0.7608400 
H    -2.6818756    3.9640431    1.7632488 
