13
Energy =
C    -3.6482037    1.6125939    0.2174841 
C    -2.5791586    2.6935477    0.3411629 
C    -5.0532598    2.1943318   -0.0498569 
H    -5.4719773    1.8193302   -1.0102740 
H    -5.0453279    3.3056305   -0.1070557 
H    -5.7564934    1.8919550    0.7554064 
N    -3.3377563    0.6324360   -0.8362628 
H    -3.6542584    1.0894865    1.2049025 
H    -3.1944900    1.1345484   -1.7472946 
H    -2.4236083    0.1668694   -0.6189203 
O    -2.1239011    3.3686907   -0.7837953 
O    -2.0935823    3.0514701    1.5910152 
H    -2.7525631    3.6745304    2.0346933 
