13
Energy =
C    -3.6515361    1.6723174    0.2380411 
C    -2.4122386    2.5025708   -0.0953662 
C    -4.9628851    2.4992460    0.1183390 
H    -4.7731643    3.5224929   -0.2746222 
H    -5.4287422    2.6173958    1.1213961 
H    -5.7285876    2.0386169   -0.5392555 
N    -3.7302838    0.4061223   -0.5313901 
H    -3.5040674    1.4006584    1.3115525 
H    -4.6252864    0.2867544   -1.0576609 
H    -2.9681639    0.3441259   -1.2515165 
O    -1.7251058    3.1583605    0.9168984 
O    -2.0075459    2.6785661   -1.4129843 
H    -2.5635996    3.4112019   -1.8281475 
