13
Energy =
C    -3.6092020    1.6303395    0.2432802 
C    -2.4902060    2.6938424    0.2822609 
C    -5.0142699    2.2401045   -0.0148659 
H    -4.9813431    3.3323014   -0.2205307 
H    -5.6706611    2.0851314    0.8674527 
H    -5.5103924    1.7851648   -0.8989782 
N    -3.3643084    0.5793202   -0.7638379 
H    -3.6066392    1.1737314    1.2610995 
H    -2.5623909   -0.0222652   -0.4661677 
H    -4.1750614   -0.0848183   -0.7850766 
O    -2.8114003    4.0283202    0.5084959 
O    -1.1357181    2.3591500    0.2311979 
H    -0.9796836    1.3739172    0.1097350 
