13
Energy =
C    -3.5744031    1.6485164    0.3091341 
C    -2.6265233    2.8403157    0.3225313 
C    -5.0118876    2.0662196   -0.0199873 
H    -5.0470681    2.5003599   -1.0448799 
H    -5.3728351    2.8302547    0.7016490 
H    -5.6908578    1.1891072    0.0118641 
N    -3.1607272    0.6322364   -0.6705098 
H    -3.5358333    1.2290183    1.3433318 
H    -2.1443202    0.4117760   -0.5303206 
H    -3.6782898   -0.2585201   -0.4842808 
O    -2.8139372    3.9234945   -0.5302012 
O    -1.5382681    2.8389409    1.1842805 
H    -1.0133892    3.6923215    1.0391667 
