13
Energy =
C    -3.7893500    1.6788685    0.2838231 
C    -2.5842863    2.6085973    0.3283111 
C    -5.0142805    2.3743056   -0.3146368 
H    -5.2976569    3.2579287    0.2970827 
H    -5.8720523    1.6686685   -0.3445226 
H    -4.7972811    2.7117886   -1.3520695 
N    -3.5321293    0.4570050   -0.4933747 
H    -4.0158013    1.4038262    1.3417410 
H    -3.1650516    0.7229989   -1.4408519 
H    -2.7637027   -0.0831876   -0.0294140 
O    -2.1344447    3.1102585    1.5432330 
O    -1.9403232    2.9838555   -0.8449376 
H    -1.1789260    3.6088311   -0.6116490 
