13
Energy =
C    -3.7802510    1.7486058    0.3678445 
C    -2.3532395    2.2841657    0.3381280 
C    -4.7737152    2.6669688   -0.3784063 
H    -5.3276625    2.1071122   -1.1633769 
H    -4.2596485    3.5081820   -0.8946555 
H    -5.5130616    3.0965464    0.3298418 
N    -3.8664247    0.3952001   -0.2046053 
H    -4.0532537    1.7152669    1.4506743 
H    -3.1415352   -0.2173922    0.2422707 
H    -4.7922762   -0.0248237    0.0470920 
O    -1.7888354    2.7646874   -0.8397677 
O    -1.5941289    2.2793439    1.5019045 
H    -0.6744929    2.6474944    1.2939777 
