13
Energy =
C    -3.6957796    1.6540663    0.2010143 
C    -2.4414240    2.5049714    0.0194503 
C    -4.9778218    2.5276250    0.2978073 
H    -5.4567740    2.3933626    1.2910351 
H    -5.7384239    2.2911267   -0.4731208 
H    -4.7416241    3.6098836    0.1777940 
N    -3.8282569    0.5952248   -0.8293296 
H    -3.5416182    1.1466762    1.1830417 
H    -4.7164744    0.6535834   -1.3765054 
H    -3.0629345    0.6693968   -1.5437296 
O    -1.4882130    2.5721394    1.0279068 
O    -2.2584549    3.2512103   -1.1377934 
H    -1.3745541    3.7401693   -1.0714539 
