13
Energy =
C    -3.5742190    1.6890144    0.2298968 
C    -2.6719421    2.8726827   -0.1146363 
C    -5.0189086    2.1369841    0.4894840 
H    -5.4565801    2.5747314   -0.4344397 
H    -5.0546054    2.9014564    1.2972165 
H    -5.6456807    1.2739839    0.7987569 
N    -3.6030028    0.6763728   -0.8376010 
H    -3.1500230    1.2524103    1.1650682 
H    -2.6223354    0.3690775   -1.0501409 
H    -4.0994617   -0.1777940   -0.4900335 
O    -2.6849559    4.0118251    0.6801688 
O    -1.7760188    2.8048767   -1.1736427 
H    -2.2575720    3.0943511   -2.0121558 
