13
Energy =
C    -3.4755812    1.6926085    0.2346241 
C    -2.5818105    2.9316769    0.0877119 
C    -4.9755187    2.0575938    0.2164367 
H    -5.4505201    1.8111087    1.1895094 
H    -5.5166815    1.5011384   -0.5816129 
H    -5.1396587    3.1392090    0.0098513 
N    -3.2383286    0.6892477   -0.8175869 
H    -3.2075523    1.2584328    1.2277767 
H    -2.2075527    0.5608715   -0.9706650 
H    -3.6085264   -0.2389478   -0.5044363 
O    -1.7573233    3.0822214   -1.0205410 
O    -2.5626920    3.9198868    1.0721653 
H    -3.1988260    3.7161320    1.8280999 
