13
Energy =
C    -3.8329265    1.7723864    0.2528280 
C    -2.6253189    2.7206391    0.3337972 
C    -4.9917425    2.3797867   -0.5872812 
H    -5.3265527    1.7354943   -1.4264001 
H    -4.7040350    3.3560876   -1.0406965 
H    -5.8796766    2.5607160    0.0566370 
N    -3.4810437    0.4080565   -0.2115949 
H    -4.1830430    1.6671220    1.3061146 
H    -4.0266345    0.0906682   -1.0448704 
H    -2.4727389    0.3368857   -0.4947020 
O    -1.6131472    2.6410416   -0.6156138 
O    -2.5546554    3.7231026    1.3014411 
H    -3.3755553    3.7513378    1.8868807 
