13
Energy =
C    -3.8199479    1.7709555    0.1962548 
C    -2.6381715    2.7143143    0.3918341 
C    -4.8790810    2.3650151   -0.7392290 
H    -4.4359781    2.5881775   -1.7350548 
H    -5.3036873    3.3012900   -0.3178426 
H    -5.7051360    1.6345346   -0.8843462 
N    -3.4227905    0.4599478   -0.3420076 
H    -4.2662199    1.6314145    1.2106809 
H    -2.9406540    0.5950978   -1.2648381 
H    -2.7056831    0.0279445    0.2896322 
O    -1.5952139    2.7444935   -0.5243189 
O    -2.6222903    3.5939402    1.4651256 
H    -3.2308329    4.3730165    1.2618734 
