13
Energy =
C    -3.5759564    1.6803386    0.0947231 
C    -2.5655231    2.5603163   -0.6821208 
C    -4.6535250    2.3690568    0.9762331 
H    -5.6764408    2.0642979    0.6595627 
H    -4.6649376    3.4685657    0.9602679 
H    -4.5348459    2.0547175    2.0353929 
N    -4.2756829    0.7470368   -0.8068646 
H    -2.9173125    1.0875652    0.7744364 
H    -3.5879834    0.2939512   -1.4588024 
H    -4.6823469   -0.0372984   -0.2436882 
O    -1.6106242    1.9010251   -1.4474680 
O    -2.4799901    3.9552820   -0.6307374 
H    -3.1542363    4.4095134   -0.0501018 
