13
Energy =
C    -3.7283587    1.6834017    0.2794122 
C    -2.4093591    2.4106157    0.0419981 
C    -4.9599537    2.5432621   -0.0985150 
H    -4.6611089    3.5374173   -0.5032153 
H    -5.5958153    2.7191115    0.7956962 
H    -5.5915280    2.0551001   -0.8717274 
N    -3.7778559    0.3985379   -0.4377680 
H    -3.7419274    1.4815860    1.3784490 
H    -4.6474281   -0.1214315   -0.1686532 
H    -3.8235895    0.5679012   -1.4721824 
O    -1.6914679    2.9180996    1.1169923 
O    -1.9365815    2.6199762   -1.2463538 
H    -1.4185903    1.7990266   -1.5221396 
