13
Energy =
C    -3.6425422    1.6736424    0.3293644 
C    -2.3770233    2.4309455   -0.0587511 
C    -4.9282165    2.4779994   -0.0132184 
H    -4.6858427    3.4346038   -0.5300457 
H    -5.4775961    2.7317443    0.9186192 
H    -5.6334720    1.9357371   -0.6750243 
N    -3.6875995    0.2997607   -0.2285345 
H    -3.5676906    1.5833137    1.4395770 
H    -4.5316556    0.1159132   -0.8165139 
H    -2.8690788    0.1205423   -0.8607314 
O    -2.0173834    2.5716598   -1.3940791 
O    -1.5934740    3.0260156    0.9195922 
H    -0.8091599    3.4815252    0.4703187 
