13
Energy =
C    -3.6221663    1.6566812    0.2316856 
C    -2.4908617    2.6601806    0.0203060 
C    -5.0177034    2.3080390    0.0252435 
H    -4.9285342    3.3692356   -0.2999394 
H    -5.5856300    2.2993707    0.9802262 
H    -5.6427975    1.7977311   -0.7349410 
N    -3.4649200    0.4216875   -0.5765004 
H    -3.5263698    1.3681844    1.3055978 
H    -4.2758495    0.2304894   -1.2068019 
H    -2.6364950    0.4955519   -1.2174819 
O    -1.9151025    3.3002561    1.1106342 
O    -2.0625179    2.9870300   -1.2603545 
H    -1.3276798    3.6792999   -1.1875859 
