13
Energy =
C    -3.9100163    1.8966443    0.2746818 
C    -2.6954969    2.8104562    0.1416952 
C    -5.0496919    2.2975982   -0.7037395 
H    -5.9402114    2.6369044   -0.1318585 
H    -5.3814909    1.4744131   -1.3685865 
H    -4.7427959    3.1366637   -1.3682594 
N    -3.5699207    0.4564104    0.1620606 
H    -4.2618961    2.0783798    1.3187211 
H    -4.0932629   -0.0382818   -0.5954192 
H    -2.5554643    0.3203774   -0.0708088 
O    -1.8214463    2.6763169   -0.9321500 
O    -2.4788094    3.8156182    1.0753423 
H    -1.6406249    4.3237309    0.8229662 
