13
Energy =
C    -3.6746950    1.6717244    0.3220496 
C    -2.7278721    2.8661546    0.2733580 
C    -5.1182026    2.0434204   -0.0809533 
H    -5.8190350    1.8353230    0.7552967 
H    -5.4611585    1.4516106   -0.9578155 
H    -5.2144204    3.1194234   -0.3506438 
N    -3.2191518    0.5614749   -0.5307201 
H    -3.6799162    1.3362210    1.3874765 
H    -3.0781757    0.9109464   -1.5112041 
H    -2.2842302    0.2234166   -0.1998418 
O    -2.5760811    3.5971912   -0.8975520 
O    -1.9847543    3.2142419    1.3926287 
H    -1.1841777    2.6031043    1.4609528 
