13
Energy =
C    -3.6277999    1.4986533    0.2000216 
C    -2.4171754    2.4266191    0.1879090 
C    -4.9479183    2.2853681    0.2949803 
H    -5.8104982    1.5875762    0.3519172 
H    -5.0696533    2.9390562   -0.5989946 
H    -4.9576263    2.9285325    1.2014786 
N    -3.6327956    0.6301954   -0.9930779 
H    -3.5327822    0.8736274    1.1194762 
H    -3.5261786   -0.3712318   -0.7052948 
H    -4.5199687    0.6966827   -1.5460081 
O    -2.3573365    3.5009308   -0.6929231 
O    -1.3825563    2.2404464    1.0974335 
H    -1.6484191    2.6419783    1.9837045 
