13
Energy =
C    -3.7412958    1.6095430    0.2215617 
C    -2.4997079    2.5046962    0.2988210 
C    -5.0035597    2.3994922   -0.1787239 
H    -5.9031712    1.7498724   -0.1017681 
H    -4.9270351    2.7758996   -1.2217271 
H    -5.1525015    3.2707881    0.4985065 
N    -3.5684289    0.4373854   -0.6669659 
H    -3.8778369    1.2331867    1.2652610 
H    -4.3427504    0.3342633   -1.3659936 
H    -2.6706446    0.4767437   -1.2080726 
O    -1.9079219    2.7398593    1.5330376 
O    -1.9605802    3.1134098   -0.8344609 
H    -2.4940347    2.8943152   -1.6616536 
