13
Energy =
C    -3.6991255    1.7138900    0.3501695 
C    -2.3073369    2.1294200   -0.1056462 
C    -4.7864172    2.6479186   -0.2112277 
H    -4.7912720    2.5979944   -1.3237893 
H    -4.5876035    3.6997804    0.0883476 
H    -5.7865102    2.3543906    0.1722000 
N    -3.9790402    0.3142054   -0.0279383 
H    -3.6908325    1.8162391    1.4621985 
H    -4.0938021   -0.2695931    0.8339246 
H    -4.8583381    0.2092148   -0.5873890 
O    -1.2571017    2.1604446    0.8062268 
O    -2.0678586    2.4941257   -1.4267716 
H    -1.0828319    2.6964067   -1.5306902 
