13
Energy =
C    -3.6553226    1.6662322    0.2537465 
C    -2.4392417    2.5517850    0.0059795 
C    -4.9728892    2.4208790    0.0442811 
H    -5.8299859    1.7438896    0.2548951 
H    -5.0633149    2.7745043   -1.0054295 
H    -5.0379890    3.2959552    0.7279683 
N    -3.6749837    0.4695491   -0.6022026 
H    -3.5875382    1.3533050    1.3246141 
H    -3.6338241    0.7596704   -1.6098486 
H    -2.8049333   -0.0907072   -0.4327133 
O    -1.7657523    3.1153068    1.0803500 
O    -2.0228463    2.8457532   -1.2860788 
H    -2.6035035    3.5841754   -1.6546090 
