13
Energy =
C    -3.7732916    1.7487422    0.4105472 
C    -2.6803436    2.8138377    0.4415866 
C    -4.9801107    2.1923335   -0.4273991 
H    -5.7959577    1.4420936   -0.3658648 
H    -4.6785900    2.3005827   -1.4937305 
H    -5.3685572    3.1706592   -0.0694830 
N    -3.2769364    0.4758274   -0.1336901 
H    -4.0997718    1.6110259    1.4687923 
H    -2.4854606    0.1302342    0.4596696 
H    -4.0263157   -0.2520424   -0.0531701 
O    -2.5476556    3.7365389   -0.5902159 
O    -1.7832404    2.8534799    1.5011305 
H    -1.0782634    2.1454767    1.3583802 
