13
Energy =
C    -3.6714707    1.6871216    0.2732554 
C    -2.4810769    2.6300864    0.0748001 
C    -5.0147942    2.3424268   -0.0967656 
H    -5.0409452    2.6223728   -1.1725342 
H    -5.1762088    3.2650638    0.5054850 
H    -5.8569102    1.6461726    0.1082909 
N    -3.5207784    0.4254358   -0.4709996 
H    -3.6674299    1.4636930    1.3689703 
H    -4.1974212   -0.2821966   -0.0965378 
H    -3.7558931    0.5528858   -1.4838252 
O    -1.8816226    3.2005515    1.1911324 
O    -2.0210211    2.9933323   -1.1907459 
H    -2.5191840    2.5029003   -1.9151509 
