13
Energy =
C    -3.8017283    1.8247112    0.3835050 
C    -2.6002516    2.7556725    0.1602357 
C    -5.0603855    2.2256839   -0.4403479 
H    -5.8773277    2.5454115    0.2418147 
H    -5.4625362    1.4070500   -1.0708468 
H    -4.8605919    3.0768726   -1.1282340 
N    -3.4129381    0.4201386    0.1402085 
H    -4.0725655    1.9459239    1.4590667 
H    -3.4105018   -0.1117865    1.0425248 
H    -4.0532368   -0.0951170   -0.5061340 
O    -2.4281483    3.4082966   -1.0568696 
O    -1.6421719    2.9469539    1.1576886 
H    -1.7975082    2.3368055    1.9460272 
