13
Energy =
C    -3.6595017    1.6231330    0.0696162 
C    -2.5060304    2.6135782    0.1708719 
C    -5.0414379    2.2933178    0.2794196 
H    -5.7114566    2.1620706   -0.5975432 
H    -4.9445919    3.3906582    0.4506319 
H    -5.5531877    1.8580597    1.1648296 
N    -3.6440706    0.9045509   -1.2143926 
H    -3.4690361    0.8922924    0.8937898 
H    -4.3973214    0.1760643   -1.2183555 
H    -3.8552740    1.5728175   -1.9954619 
O    -1.6967600    2.6221945    1.2996290 
O    -2.2882348    3.5541218   -0.8278719 
H    -1.7363954    3.1238704   -1.5557555 
