13
Energy =
C    -3.6210243    1.6939121    0.2816690 
C    -2.5212253    2.7574621    0.0816334 
C    -4.9988708    2.2126383   -0.1847026 
H    -4.9322583    3.2106513   -0.6718683 
H    -5.6924612    2.3001784    0.6781148 
H    -5.4595212    1.5199311   -0.9234945 
N    -3.4185514    0.3664073   -0.3363869 
H    -3.6617845    1.5701751    1.3899488 
H    -2.5627081    0.2249332   -0.9003691 
H    -3.4738553   -0.3915333    0.3888083 
O    -2.7546945    4.0205788    0.6019673 
O    -1.2858736    2.5528442   -0.5220469 
H    -1.2269767    1.6279590   -0.8917409 
