13
Energy =
C    -3.7071148    1.6860141    0.2635879 
C    -2.5302503    2.6503876    0.1668012 
C    -5.0739777    2.4031498    0.2229967 
H    -4.9604666    3.5078102    0.1415688 
H    -5.6563911    2.1783097    1.1412118 
H    -5.6787513    2.0728874   -0.6493072 
N    -3.6786132    0.6681959   -0.7987697 
H    -3.5966235    1.1819911    1.2543758 
H    -3.6219600    1.1496789   -1.7298567 
H    -2.7987142    0.1049529   -0.7098772 
O    -1.4574524    2.5278371    1.0407562 
O    -2.5023297    3.6362635   -0.8121123 
H    -1.6366127    4.1543842   -0.7291704 
