13
Energy =
C    -3.7258920    1.7547188    0.2270145 
C    -2.5178854    2.6666395    0.5329606 
C    -4.9978853    2.3594326   -0.4406495 
H    -5.8752986    2.2183689    0.2276561 
H    -5.2427571    1.8481633   -1.3973562 
H    -4.9521663    3.4318992   -0.6848478 
N    -3.2995599    0.5793047   -0.5489451 
H    -4.0106290    1.4006163    1.2473843 
H    -4.0831230   -0.1106149   -0.6351742 
H    -3.0049117    0.8701786   -1.5122928 
O    -1.4216285    2.0869121    1.1583893 
O    -2.4465832    4.0393140    0.2750748 
H    -3.2833960    4.4573460   -0.0765581 
