13
Energy =
C    -3.6508378    1.6609109    0.2635174 
C    -2.5319772    2.7077555    0.2020413 
C    -5.0546994    2.2786644    0.0702171 
H    -5.0082674    3.3715704   -0.1370054 
H    -5.6737278    2.1264024    0.9791079 
H    -5.5860848    1.8185858   -0.7916072 
N    -3.4788362    0.5962220   -0.7388661 
H    -3.5844248    1.2188588    1.2850847 
H    -2.5015179    0.2166889   -0.6913416 
H    -4.1079029   -0.2056504   -0.4979251 
O    -1.2572856    2.3565527   -0.2256879 
O    -2.7299961    3.9805792    0.7264707 
H    -2.6648427    3.9352847    1.7327072 
