13
Energy =
C    -3.8108980    1.7908935    0.1838955 
C    -2.6740627    2.8060592    0.0876713 
C    -4.9348870    2.0535307   -0.8424666 
H    -5.8860870    2.2829255   -0.3175336 
H    -5.1135135    1.1679665   -1.4903585 
H    -4.6991171    2.9174236   -1.5041335 
N    -3.3561134    0.3986292    0.0289296 
H    -4.2223154    1.9293900    1.2120534 
H    -2.8243786    0.3075924   -0.8706791 
H    -2.6653210    0.1767341    0.7865840 
O    -1.3449176    2.3968712    0.1012453 
O    -2.9635452    4.1635934    0.0390434 
H    -2.0949130    4.6830652    0.0081448 
