13
Energy =
C    -3.8114956    1.6283804    0.1553031 
C    -3.1934943    2.6633359    1.1284453 
C    -4.7969615    2.1100306   -0.9638672 
H    -5.7850995    1.6208154   -0.8256939 
H    -4.4629532    1.8627683   -1.9917600 
H    -4.9821299    3.2007260   -0.9888245 
N    -2.7427071    0.7964575   -0.4346150 
H    -4.4082392    0.9934742    0.8576467 
H    -2.7980322   -0.1817156   -0.0635264 
H    -2.7570868    0.7291125   -1.4774858 
O    -2.3554185    2.1837117    2.1298756 
O    -3.4696516    4.0383613    1.1260797 
H    -4.1390002    4.3666125    0.4579552 
