13
Energy =
C    -3.6342021    1.8467422    0.3861084 
C    -2.4091492    2.5015692   -0.2373951 
C    -4.9391293    2.5037386   -0.0966595 
H    -4.9295145    3.5935632    0.1265882 
H    -5.8162611    2.0515758    0.4130004 
H    -5.0539065    2.3744332   -1.1957309 
N    -3.6788195    0.4033494    0.1064042 
H    -3.5284657    1.9997634    1.4860922 
H    -4.5330267   -0.0191224    0.5395843 
H    -3.7405690    0.2495342   -0.9299185 
O    -1.5639326    3.2834069    0.5419164 
O    -2.1541550    2.3780311   -1.5985740 
H    -1.3019152    2.8794290   -1.8110285 
