13
Energy =
C    -3.6016180    1.7297254    0.2609575 
C    -2.4698660    2.6653762   -0.1845160 
C    -5.0085434    2.2422357   -0.1268544 
H    -4.9718970    3.1876113   -0.7117799 
H    -5.6165624    2.4289980    0.7830959 
H    -5.5497453    1.5047205   -0.7588867 
N    -3.4475148    0.3702650   -0.2850231 
H    -3.5266195    1.6944917    1.3728175 
H    -2.4582509    0.0417212   -0.1681124 
H    -4.0436422   -0.2904186    0.2669313 
O    -2.7041639    4.0205175   -0.3824780 
O    -1.1568533    2.2108911   -0.2279956 
H    -0.8064732    2.1240120    0.7137735 
