13
Energy =
C    -3.7079121    1.5640592    0.2259446 
C    -2.4290273    2.3903057    0.2804164 
C    -4.9672660    2.4363487    0.0779638 
H    -5.0291339    3.1745281    0.9077658 
H    -5.8834257    1.8087009    0.0981284 
H    -4.9402593    3.0003153   -0.8813511 
N    -3.6664154    0.5813965   -0.8678713 
H    -3.7483190    1.0263335    1.2038403 
H    -4.5283121   -0.0143302   -0.8458496 
H    -3.6555786    1.0768864   -1.7931902 
O    -2.2649401    3.5018259   -0.5375645 
O    -1.3832617    1.9948943    1.1009438 
H    -0.8588643    1.2838626    0.6121268 
