13
Energy =
C    -3.4702012    1.7108775    0.2371579 
C    -2.5812975    2.9059759   -0.1067648 
C    -4.9535674    2.0974489    0.2058811 
H    -5.1506736    2.9549804    0.8869370 
H    -5.5862613    1.2423350    0.5255383 
H    -5.2551595    2.3857062   -0.8252980 
N    -3.2720179    0.5831669   -0.6875712 
H    -3.1872416    1.4129492    1.2772999 
H    -2.2549792    0.3247090   -0.7089692 
H    -3.7735256   -0.2615370   -0.3219947 
O    -1.9437853    3.5889930    0.9205575 
O    -2.4277717    3.3583550   -1.4159086 
H    -2.9293222    2.7663753   -2.0625246 
