13
Energy =
C    -3.4536745    1.8125993    0.3427937 
C    -2.8526879    3.1350724   -0.1113206 
C    -4.8880932    1.6454466   -0.1702079 
H    -4.8866587    1.6088791   -1.2824896 
H    -5.5203675    2.5007596    0.1528339 
H    -5.3334090    0.7043572    0.2140672 
N    -2.6591303    0.6679498   -0.1278472 
H    -3.4633536    1.8457977    1.4593097 
H    -1.6664478    0.7860366    0.1918697 
H    -3.0035969   -0.2052554    0.3370803 
O    -2.0446134    3.8573440    0.7549541 
O    -3.0414255    3.5985097   -1.4065242 
H    -2.3696680    3.1416702   -2.0060676 
