13
Energy =
C    -3.5927177    1.6925091    0.2259780 
C    -2.6685079    2.8984277    0.0135625 
C    -5.0542184    2.1317479    0.3209017 
H    -5.7031751    1.2553257    0.5308853 
H    -5.3768238    2.5796223   -0.6446949 
H    -5.1918206    2.8845753    1.1276317 
N    -3.5237617    0.6656241   -0.8334331 
H    -3.2909287    1.2537080    1.2061672 
H    -2.7694932    0.8629385   -1.5352561 
H    -3.2941195   -0.2643198   -0.4109415 
O    -1.7609437    2.9468186   -1.0374686 
O    -2.6865106    3.9464636    0.9250712 
H    -2.1604041    3.6815704    1.7445431 
