13
Energy =
C    -3.6953403    1.6865174    0.2601032 
C    -2.7714407    2.8967484    0.1802557 
C    -5.1790540    2.0447809   -0.0384407 
H    -5.6259624    1.4500011   -0.8605917 
H    -5.2909269    3.1127940   -0.3317331 
H    -5.8019050    1.8820659    0.8671558 
N    -3.2026861    0.6034441   -0.6173357 
H    -3.6336752    1.3555983    1.3250835 
H    -2.8774846   -0.2055294   -0.0371084 
H    -3.9195370    0.2327769   -1.2813880 
O    -1.8714431    3.1516870    1.2113611 
O    -2.8135316    3.7575593   -0.9130874 
H    -2.1080961    4.4723310   -0.7973306 
