13
Energy =
C    -3.7593773    1.6810881    0.2434973 
C    -2.4563339    2.4917610    0.2950642 
C    -4.9550818    2.5756579   -0.1320773 
H    -4.8202595    2.9905384   -1.1568762 
H    -5.0485162    3.4270054    0.5776887 
H    -5.9015371    1.9927442   -0.1025696 
N    -3.6919302    0.5143216   -0.6675492 
H    -3.9198456    1.2891205    1.2742200 
H    -4.4428714    0.5278135   -1.3980974 
H    -2.7868278    0.4873656   -1.1991956 
O    -1.7469034    2.7327683   -0.8755463 
O    -1.9952170    3.0584325    1.4837848 
H    -2.6136825    2.8873658    2.2614588 
