13
Energy =
C    -3.6041174    1.5852583    0.1152050 
C    -2.5416229    2.6790597    0.1405330 
C    -5.0093464    2.1758592    0.3260188 
H    -5.0531410    2.7441888    1.2810345 
H    -5.7672392    1.3644979    0.3648561 
H    -5.2581829    2.8707219   -0.5071725 
N    -3.5706304    0.7647562   -1.1181799 
H    -3.3613535    0.9231497    0.9797414 
H    -4.4793491    0.7856719   -1.6380176 
H    -2.8566896    1.1311231   -1.7948727 
O    -1.7335780    2.8400844    1.2592647 
O    -2.4076764    3.5594387   -0.9263284 
H    -1.6647052    4.2131950   -0.7142319 
