13
Energy =
C    -3.6686183    1.7817081    0.3562528 
C    -2.6049345    2.8537041    0.1476107 
C    -4.9383600    2.0422299   -0.4842965 
H    -5.8035345    2.2554115    0.1783925 
H    -5.1927645    1.1651134   -1.1177951 
H    -4.8130816    2.9079883   -1.1729693 
N    -3.1507030    0.4420500    0.0358562 
H    -3.9338653    1.8306648    1.4403778 
H    -2.2816821    0.2688734    0.5976812 
H    -3.8405166   -0.2758969    0.3624698 
O    -1.9011574    3.3497543    1.2359445 
O    -2.2705393    3.2896219   -1.1274676 
H    -1.6026080    2.6391283   -1.5143468 
