13
Energy =
C    -3.9188484    1.9100553    0.3109122 
C    -2.7584188    2.9018313    0.2605852 
C    -5.0373417    2.2709162   -0.7065016 
H    -4.7626457    3.1589487   -1.3212685 
H    -5.9767109    2.5200168   -0.1673282 
H    -5.2761837    1.4567152   -1.4203806 
N    -3.4787153    0.5009408    0.1664533 
H    -4.3400003    2.0255396    1.3378709 
H    -3.9039595    0.0143306   -0.6553889 
H    -2.4426330    0.4363683    0.0116289 
O    -1.9619154    2.9924346   -0.8733242 
O    -2.4867740    3.7193737    1.3487026 
H    -1.9504666    3.1963886    2.0258814 
