13
Energy =
C    -3.6464491    1.6757205    0.2952748 
C    -2.4635268    2.6247385    0.0874415 
C    -4.9966734    2.3557075   -0.0209164 
H    -5.6132635    2.4381760    0.8999470 
H    -5.5811307    1.7799616   -0.7724484 
H    -4.8634537    3.3823683   -0.4306224 
N    -3.5311800    0.4607349   -0.5286176 
H    -3.6157718    1.4009680    1.3795959 
H    -2.6088924   -0.0034925   -0.3389242 
H    -4.2598147   -0.2300024   -0.2258680 
O    -1.8424289    3.1885560    1.1939157 
O    -2.0200834    2.9716263   -1.1865885 
H    -2.5442758    2.4699804   -1.8892831 
