13
Energy =
C    -3.7743888    1.7059337    0.3080694 
C    -2.6502472    2.7268656    0.5299703 
C    -4.9000422    2.2526299   -0.5950503 
H    -4.6990161    3.2935160   -0.9345616 
H    -5.8683273    2.2474116   -0.0502800 
H    -5.0324879    1.6260054   -1.5052289 
N    -3.2941627    0.4369408   -0.2635738 
H    -4.1962492    1.4961278    1.3196521 
H    -2.7593645    0.6293643   -1.1468040 
H    -2.6024162    0.0034923    0.3944550 
O    -1.4436568    2.5943241   -0.1465902 
O    -2.8293282    3.8215430    1.3743337 
H    -3.7537182    3.8400505    1.7786668 
