13
Energy =
C    -3.6186926    1.5982410    0.1380698 
C    -2.4320346    2.5627883    0.0553015 
C    -4.9559482    2.3245327    0.3711756 
H    -4.9082042    2.9380928    1.2992523 
H    -5.7819577    1.5897473    0.4863872 
H    -5.1978525    3.0000090   -0.4778803 
N    -3.7269883    0.7389369   -1.0522023 
H    -3.3985193    0.9559769    1.0258530 
H    -4.3856981   -0.0511587   -0.8522612 
H    -4.1294923    1.2668359   -1.8623285 
O    -1.5272556    2.6090362    1.1089997 
O    -2.2635246    3.4476775   -1.0103229 
H    -2.9669258    3.3123352   -1.7179105 
