13
Energy =
C    -3.5875811    1.6555483    0.2511415 
C    -2.6186103    2.7405359   -0.2015802 
C    -4.9353867    2.2372874    0.7198330 
H    -5.5943505    1.4323269    1.1086425 
H    -5.4437808    2.7480135   -0.1290011 
H    -4.7778180    2.9880278    1.5246636 
N    -3.8024386    0.6661226   -0.8233535 
H    -3.0953811    1.1691693    1.1273364 
H    -3.4114404   -0.2617893   -0.5359757 
H    -4.8160501    0.5163080   -1.0412489 
O    -1.2580577    2.6046264    0.0576856 
O    -3.0730315    3.8736682   -0.8713791 
H    -2.2798251    4.4499236   -1.1185980 
