13
Energy =
C    -3.9089526    1.8327392    0.2897377 
C    -2.7040328    2.7618198    0.3421703 
C    -4.9123584    2.2681321   -0.7815943 
H    -5.2825874    3.2957571   -0.5749269 
H    -5.7776185    1.5710176   -0.7926099 
H    -4.4364370    2.2550347   -1.7866608 
N    -3.5384646    0.4333249    0.0274060 
H    -4.3983706    1.9047158    1.2907551 
H    -2.9593371    0.3841462   -0.8471693 
H    -2.9207962    0.0931460    0.8026094 
O    -1.7534537    2.7470980   -0.6730360 
O    -2.5650788    3.6575867    1.3932728 
H    -1.7182869    4.1945714    1.2549964 
