13
Energy =
C    -3.5297404    1.7050827    0.3642574 
C    -2.5207004    2.7394211   -0.1230993 
C    -4.9754729    2.1764595    0.1811124 
H    -5.2094937    2.3259334   -0.8947475 
H    -5.1498516    3.1288125    0.7282566 
H    -5.6715609    1.4068937    0.5811681 
N    -3.3848460    0.4059013   -0.3100846 
H    -3.3340841    1.5757149    1.4565613 
H    -3.4076431    0.5449346   -1.3503482 
H    -2.4362252    0.0147687   -0.0955440 
O    -1.8321706    3.5197958    0.7945920 
O    -2.3135092    2.9473509   -1.4811529 
H    -3.0635887    3.5166266   -1.8433293 
