13
Energy =
C    -3.7695339    1.7676709    0.3517649 
C    -2.6238706    2.7931740    0.3481968 
C    -4.9904967    2.2253507   -0.4785066 
H    -5.8678482    2.3961552    0.1806849 
H    -5.2725460    1.4636891   -1.2380599 
H    -4.7960680    3.1679422   -1.0362059 
N    -3.3247919    0.4590673   -0.1511311 
H    -4.0994726    1.6570137    1.4110579 
H    -2.4503481    0.1653869    0.3475155 
H    -4.0472708   -0.2629728    0.0820625 
O    -2.3428727    3.5293145   -0.7979686 
O    -1.8130451    2.9745397    1.4704294 
H    -2.0632020    2.3572917    2.2279354 
