13
Energy =
C    -3.6713811    1.7015029    0.2467584 
C    -2.5585570    2.7410970    0.3773598 
C    -5.0308857    2.3248270   -0.1309699 
H    -5.7706453    2.1639883    0.6811521 
H    -5.4377650    1.8670274   -1.0589536 
H    -4.9536385    3.4204472   -0.3140804 
N    -3.3643705    0.6439109   -0.7380611 
H    -3.7593886    1.2570786    1.2692792 
H    -2.4471101    0.8142728   -1.2164206 
H    -3.2650188   -0.2753952   -0.2448499 
O    -1.5709195    2.5762505    1.3367512 
O    -2.4762258    3.8164989   -0.4979864 
H    -2.0520570    3.5024508   -1.3581475 
