13
Energy =
C    -3.6571307    1.5895165    0.2797841 
C    -2.4636753    2.5483904    0.3806813 
C    -4.9503437    2.3571684   -0.0050975 
H    -5.8172370    1.6631254   -0.0141852 
H    -4.8847180    2.8442056   -1.0045828 
H    -5.1277317    3.1382596    0.7654261 
N    -3.4846391    0.5920027   -0.7859570 
H    -3.7508901    1.0674209    1.2600992 
H    -2.5400638    0.1440405   -0.7022132 
H    -4.1860243   -0.1756318   -0.6611169 
O    -1.7341487    2.8777562   -0.7555542 
O    -2.1231316    3.1523710    1.5922844 
H    -2.7399444    2.8779750    2.3419933 
