13
Energy =
C    -3.8593524    2.0050642    0.3915072 
C    -2.6948033    2.8988156   -0.0208978 
C    -5.0737332    2.1088399   -0.5754709 
H    -4.8575294    2.7713710   -1.4439907 
H    -5.9484477    2.5409704   -0.0439418 
H    -5.3921406    1.1348360   -0.9987104 
N    -3.4006223    0.6095554    0.5549255 
H    -4.1830930    2.4056132    1.3824813 
H    -3.4458299    0.3386637    1.5657402 
H    -3.9778698   -0.0898295    0.0344548 
O    -2.3517908    3.0570835   -1.3592100 
O    -1.9276892    3.5293346    0.9499838 
H    -1.2553043    2.8641861    1.3042449 
