13
Energy =
C    -3.6111498    1.5793695    0.1601566 
C    -2.3909199    2.4870175    0.0372131 
C    -4.8955010    2.3647383    0.4518523 
H    -5.1259800    3.0358236   -0.4055387 
H    -4.7730971    2.9898184    1.3627691 
H    -5.7503975    1.6731016    0.6019908 
N    -3.8257050    0.7917746   -1.0627171 
H    -3.3973783    0.8999405    1.0184644 
H    -2.9287822    0.3107680   -1.3200802 
H    -4.5140847    0.0293555   -0.8614306 
O    -2.5216967    3.8651641   -0.1062825 
O    -1.1189576    1.9307991    0.0656494 
H    -0.4418327    2.6755359   -0.0407001 
