13
Energy =
C    -3.9303904    1.8805548    0.3031710 
C    -2.7818700    2.8654763    0.5014086 
C    -4.7550548    2.1875015   -0.9639855 
H    -4.3655919    3.0751251   -1.5118861 
H    -5.8136398    2.3879364   -0.6940931 
H    -4.7468822    1.3303620   -1.6719429 
N    -3.4659924    0.4857631    0.2356341 
H    -4.5953178    1.9975037    1.1921526 
H    -2.7102485    0.4042512   -0.4895235 
H    -3.0269365    0.2218674    1.1494577 
O    -1.7753189    2.9680046   -0.4497623 
O    -2.7283167    3.6625648    1.6359018 
H    -2.3484217    3.1232379    2.3998815 
