13
Energy =
C    -3.7471825    1.6605473    0.2765608 
C    -2.4432971    2.4690015    0.2865138 
C    -4.9763042    2.5236196   -0.1053350 
H    -5.5146066    2.1212102   -0.9913128 
H    -4.6867995    3.5704316   -0.3542079 
H    -5.6991857    2.5636343    0.7380123 
N    -3.6569380    0.4998479   -0.6224864 
H    -3.8757903    1.2758575    1.3147674 
H    -4.5484781   -0.0493611   -0.5925218 
H    -3.5151590    0.8241430   -1.6109398 
O    -1.7712222    2.7091929   -0.9066192 
O    -1.9559072    3.0542957    1.4567963 
H    -2.5486539    2.8782701    2.2531401 
