13
 energy: -1.828826747425 gnorm: 0.000811805982 xtb: 6.4.0 (d4b70c2)
C        -3.71616399159916    1.72591037311746    0.36752743468394
C        -2.47000910167932    2.57839933661466    0.12403379411421
C        -4.93321192665358    2.40742522323740   -0.22666109827034
H        -4.81866255808737    2.49525794153442   -1.30607877781577
H        -5.05382238875858    3.41307191246273    0.17722859110703
H        -5.84149632661792    1.83761622770375   -0.03239123835033
N        -3.53256119971206    0.38654973351478   -0.19924056437024
H        -3.84384082708512    1.64128514911832    1.45984030625827
H        -2.51865831146121    0.45355703619256   -0.67995602093306
H        -3.49471517495016   -0.33649806965284    0.51013114780177
O        -2.46887530503197    3.70813671346395    0.55931176740231
O        -1.46811894801169    2.00387323911586   -0.57415968101091
H        -1.75917506344584    1.00336413696152   -0.84385906972657
