13
Energy =
C    -3.5977512    1.7264613    0.2769916 
C    -2.6653104    2.9213746    0.1210625 
C    -5.0949643    2.1286416    0.1587359 
H    -5.6229238    1.9209956    1.1138135 
H    -5.6396391    1.5961598   -0.6465835 
H    -5.2077254    3.2170550   -0.0567531 
N    -3.2376941    0.6617831   -0.6841609 
H    -3.4184597    1.3648918    1.3191592 
H    -2.9120837   -0.1882036   -0.1650561 
H    -4.0279071    0.3539192   -1.2956479 
O    -1.6686122    3.1573135    1.0585937 
O    -2.7913338    3.7802969   -0.9628336 
H    -2.2785021    3.3785386   -1.7343272 
