13
Energy =
C    -3.6205002    1.6768619    0.2834920 
C    -2.5410161    2.7559338    0.1556355 
C    -5.0542635    2.2268527    0.1012071 
H    -5.5887892    1.7044703   -0.7215025 
H    -5.0597522    3.3095994   -0.1536377 
H    -5.6396030    2.0949652    1.0349919 
N    -3.4274544    0.5757706   -0.6763913 
H    -3.5073470    1.2904828    1.3236350 
H    -2.4307230    0.2482623   -0.6436144 
H    -4.0078782   -0.2429141   -0.3777346 
O    -1.2292782    2.4067801   -0.1491288 
O    -2.8203077    4.0818962    0.4687083 
H    -1.9724807    4.6243034    0.3605174 
