13
Energy =
C    -3.8380161    1.6587916    0.0868561 
C    -2.5830276    2.4067371    0.6075070 
C    -5.0166848    2.4653437   -0.5334075 
H    -4.8913450    3.5668054   -0.5165423 
H    -5.9594705    2.2304071    0.0043819 
H    -5.1813424    2.1971039   -1.6004403 
N    -3.4823378    0.6359794   -0.9022617 
H    -4.2071120    1.1378522    1.0103198 
H    -2.9472244    1.0808324   -1.6862399 
H    -2.8310935   -0.0621712   -0.4665602 
O    -1.5568104    1.6384541    1.1440762 
O    -2.4223013    3.7988654    0.6042009 
H    -3.1815346    4.3506312    0.2542986 
