13
Energy =
C    -3.5358190    1.6234891    0.2941048 
C    -2.5268507    2.7503416    0.0073359 
C    -4.9791383    2.1590941    0.3339253 
H    -5.6931367    1.3562092    0.6131420 
H    -5.2619628    2.5610435   -0.6643284 
H    -5.0756945    2.9775739    1.0813757 
N    -3.4691861    0.5375993   -0.7020631 
H    -3.2780239    1.2304184    1.3053192 
H    -2.6448621   -0.0735939   -0.4944270 
H    -4.2937449   -0.1017587   -0.6031651 
O    -2.8621212    4.0632252    0.3220165 
O    -1.2343268    2.5019603   -0.4573212 
H    -1.0858526    1.5335001   -0.6853169 
