13
Energy =
C    -3.7283501    1.7276751    0.3779280 
C    -2.5938883    2.7371288    0.3001922 
C    -4.9969867    2.2404249   -0.3296450 
H    -4.7949395    2.3897808   -1.4147363 
H    -5.3168358    3.2140902    0.1019514 
H    -5.8283829    1.5133772   -0.2116675 
N    -3.3149163    0.4272100   -0.1871532 
H    -3.9474175    1.6234970    1.4684208 
H    -3.2984589   -0.2989262    0.5671612 
H    -3.9651823    0.0804040   -0.9315636 
O    -2.1956179    3.2728558   -0.9212453 
O    -1.9600181    3.1565289    1.4637151 
H    -1.2269590    3.8077070    1.2140187 
