13
Energy =
C    -3.6648769    1.7092022    0.2504965 
C    -2.5221302    2.7203886    0.3369093 
C    -5.0198846    2.3654594   -0.0854294 
H    -4.9206068    3.4577312   -0.2778864 
H    -5.7358374    2.2283037    0.7519663 
H    -5.4693620    1.9134678   -0.9964383 
N    -3.4182971    0.6386296   -0.7372739 
H    -3.7295325    1.2729903    1.2782925 
H    -2.5130250    0.7821129   -1.2463316 
H    -3.3270458   -0.2803769   -0.2419600 
O    -1.5067784    2.5349793    1.2630060 
O    -2.4426349    3.7890805   -0.5468463 
H    -2.0568198    3.4601034   -1.4194193 
