13
Energy =
C    -3.8811167    1.7842752    0.3354945 
C    -2.6488930    2.6412120    0.6648996 
C    -4.9327515    2.4951723   -0.5575341 
H    -4.5978098    3.5035106   -0.8885682 
H    -5.8835811    2.6312865    0.0017001 
H    -5.1656732    1.9151266   -1.4763811 
N    -3.4877723    0.5080646   -0.2781875 
H    -4.3590654    1.5667304    1.3189891 
H    -4.3328568   -0.0963785   -0.4140658 
H    -3.0682069    0.6842474   -1.2238325 
O    -2.2366749    3.6456818   -0.2049294 
O    -1.8921389    2.4024549    1.8121800 
H    -2.1943264    1.5640650    2.2866928 
