13
Energy =
C    -3.8026998    1.7970704    0.3321652 
C    -2.6365448    2.7967698    0.2498488 
C    -5.1207599    2.3397541   -0.2930746 
H    -5.8951050    2.4647964    0.4944389 
H    -5.5550651    1.6786869   -1.0702428 
H    -4.9788866    3.3349755   -0.7713949 
N    -3.4478622    0.4635928   -0.2099616 
H    -3.9937027    1.6682336    1.4224607 
H    -4.0775616    0.1431064   -0.9808041 
H    -2.4833903    0.4610726   -0.6242839 
O    -2.5049754    3.6262865   -0.8577317 
O    -1.6490245    2.8381772    1.2338490 
H    -1.7800016    2.1225352    1.9336356 
