13
Energy =
C    -3.6624291    1.7846061    0.3557007 
C    -2.5986424    2.8546028    0.1379059 
C    -4.9393071    2.0479983   -0.4730728 
H    -4.8185110    2.9138082   -1.1624988 
H    -5.7979808    2.2627131    0.1975174 
H    -5.2012348    1.1717165   -1.1046502 
N    -3.1500513    0.4441766    0.0297794 
H    -3.9174563    1.8335936    1.4422994 
H    -2.2758107    0.2692877    0.5829082 
H    -3.8378722   -0.2727085    0.3628428 
O    -1.8835543    3.3481480    1.2199652 
O    -2.2755264    3.2910683   -1.1398753 
H    -1.6128570    2.6394552   -1.5338578 
