13
Energy =
C    -3.6004094    1.5873817    0.1889639 
C    -2.4028430    2.5013450   -0.0529293 
C    -4.8840508    2.3732110    0.4824739 
H    -5.7191965    1.6818689    0.7198640 
H    -5.1640507    2.9779555   -0.4088694 
H    -4.7323631    3.0632952    1.3405117 
N    -3.8549747    0.7115384   -0.9642378 
H    -3.3373727    0.9739428    1.0825439 
H    -2.9623317    0.2252009   -1.2263800 
H    -4.5213644   -0.0435691   -0.6788935 
O    -2.5644257    3.8625371   -0.2939214 
O    -1.1209169    1.9679019   -0.0372913 
H    -0.4623143    2.7124825   -0.2277421 
