13
Energy =
C    -3.6409786    1.6361706    0.1923255 
C    -2.6889259    2.8398369    0.2860741 
C    -5.1296944    2.0806403    0.1349436 
H    -5.2285008    3.1902833    0.1198557 
H    -5.6759218    1.7107655    1.0294862 
H    -5.6758341    1.7088732   -0.7559257 
N    -3.2994917    0.7249272   -0.9265185 
H    -3.5046516    1.0545481    1.1314918 
H    -4.0778781    0.5877698   -1.6108774 
H    -2.4980418    1.0965673   -1.4939899 
O    -2.6353947    3.7453156   -0.7665699 
O    -1.8772564    3.0609343    1.3998395 
H    -1.9618781    2.3365403    2.0960234 
