13
Energy =
C    -3.7710524    1.8120191    0.4229730 
C    -2.5133988    2.6656656    0.3337657 
C    -4.8662437    2.3115868   -0.5341175 
H    -5.7879005    1.7008956   -0.4275031 
H    -4.5176416    2.2612625   -1.5894894 
H    -5.1217152    3.3705114   -0.3048867 
N    -3.4898532    0.3939129    0.1513414 
H    -4.1288022    1.9181014    1.4747934 
H    -4.3535502   -0.1718019    0.3275441 
H    -3.2412508    0.2686271   -0.8600667 
O    -2.3410339    3.7354503    1.2010819 
O    -1.5581768    2.4297072   -0.6461469 
H    -0.9512056    1.6927825   -0.3193988 
