13
Energy =
C    -3.6355632    1.5896389    0.0754117 
C    -2.5835818    2.6929444    0.2845805 
C    -5.0909902    2.1161779    0.0304559 
H    -5.1480871    3.2265013    0.0343183 
H    -5.6690150    1.7449162    0.9028410 
H    -5.6124162    1.7853608   -0.8945050 
N    -3.3825291    0.8219546   -1.1547248 
H    -3.5369719    0.9157826    0.9594342 
H    -2.3910814    0.4840510   -1.1706941 
H    -3.9827097   -0.0378245   -1.1637184 
O    -2.8715731    4.0208288   -0.0117978 
O    -1.3136872    2.3862975    0.7743534 
H    -1.1780182    1.3917845    0.8658766 
