13
Energy =
C    -3.6564711    1.5219910    0.1884872 
C    -2.3478666    2.3068235    0.1746889 
C    -4.8986156    2.4382148    0.1658945 
H    -5.5354044    2.2480240    1.0558640 
H    -5.5238476    2.2498676   -0.7346927 
H    -4.6259994    3.5173106    0.1537084 
N    -3.7507695    0.5753558   -0.9342883 
H    -3.6547293    0.9439515    1.1439345 
H    -3.6033495    1.0913591   -1.8366659 
H    -2.9667544   -0.1181494   -0.8677819 
O    -2.0353743    3.1340141   -0.8959460 
O    -1.4688021    2.2198697    1.2450833 
H    -1.7915751    2.8222718    1.9879518 
