13
Energy =
C    -3.9040187    1.7041261    0.1781924 
C    -2.5058048    2.0927025    0.6836731 
C    -4.6530931    2.9198408   -0.4362828 
H    -4.0081833    3.8279321   -0.4664690 
H    -5.5491931    3.1673641    0.1729367 
H    -5.0027519    2.7542599   -1.4761869 
N    -3.8935535    0.5445044   -0.7473344 
H    -4.4560138    1.3768248    1.0896684 
H    -4.3488046    0.7344562   -1.6689506 
H    -2.9165064    0.2371525   -0.9778866 
O    -1.4126495    2.0177173   -0.1711757 
O    -2.3130224    2.6003678    1.9687998 
H    -3.1764770    2.6957570    2.4810314 
