13
Energy =
C    -3.6791682    1.6657702    0.2008864 
C    -2.5723542    2.7121672    0.2729505 
C    -5.0898890    2.2995201    0.1041937 
H    -5.7106861    1.9904090    0.9722102 
H    -5.6242136    1.9967275   -0.8216793 
H    -5.0397987    3.4136059    0.0999509 
N    -3.4714433    0.7336042   -0.9185370 
H    -3.5945258    1.0977599    1.1588187 
H    -4.1929081   -0.0252393   -0.8792393 
H    -3.5986341    1.2385246   -1.8290741 
O    -1.9076162    2.9397183    1.4702345 
O    -2.2684027    3.5000918   -0.8295588 
H    -1.6453735    2.9772851   -1.4275976 
