13
Energy =
C    -3.8268203    1.9627267    0.3387962 
C    -2.6864237    2.9146618    0.0018958 
C    -4.9759073    2.0271226   -0.6902517 
H    -4.7626748    2.7525022   -1.5070568 
H    -5.9217727    2.3317050   -0.1947619 
H    -5.1507704    1.0374623   -1.1657832 
N    -3.3744610    0.5662745    0.4544628 
H    -4.2093722    2.3070053    1.3305216 
H    -2.8825812    0.2924245   -0.4317394 
H    -2.6549794    0.5003740    1.2142563 
O    -1.9888118    2.7913366   -1.1938236 
O    -2.3331428    3.9168861    0.8933652 
H    -1.5610778    4.4402519    0.4996433 
