13
Energy =
C    -3.6189096    1.6182917    0.1696138 
C    -2.6420565    2.8145811    0.1731113 
C    -5.1020505    2.0381651   -0.0221396 
H    -5.5709905    1.5221024   -0.8876519 
H    -5.2245073    3.1243676   -0.2238178 
H    -5.6943937    1.7961511    0.8854986 
N    -3.2854845    0.6147553   -0.8604212 
H    -3.5094357    1.1618056    1.1821828 
H    -2.3897295    0.1327039   -0.6193834 
H    -3.9954873   -0.1572563   -0.8495834 
O    -3.1246597    4.1107069    0.3217263 
O    -1.2575535    2.6414132    0.1640762 
H    -0.9939991    1.6760353    0.0706726 
