13
Energy =
C    -3.6404189    1.6460274    0.2862608 
C    -2.4608993    2.5949056    0.0741730 
C    -5.0090288    2.3211154    0.0325428 
H    -4.9028224    3.3512850   -0.3755659 
H    -5.5923620    2.3855816    0.9752404 
H    -5.6101408    1.7527245   -0.7103900 
N    -3.5390558    0.4500432   -0.5662038 
H    -3.5801444    1.3452050    1.3603679 
H    -2.6146113   -0.0174016   -0.4089440 
H    -4.2632848   -0.2477879   -0.2709411 
O    -2.4767379    3.5500143   -0.9356060 
O    -1.3317121    2.4812759    0.8742333 
H    -0.7744552    1.7089739    0.5402274 
