13
Energy =
C    -3.9274463    2.0071985    0.3842807 
C    -2.6407044    2.8429634    0.3379428 
C    -4.8400133    2.2501044   -0.8353645 
H    -5.1059942    3.3276596   -0.9132732 
H    -5.7827056    1.6691888   -0.7448476 
H    -4.3177438    1.9554027   -1.7735069 
N    -3.6213162    0.5664268    0.5025200 
H    -4.4701957    2.3621731    1.2925507 
H    -3.8764946    0.2276469    1.4603835 
H    -4.1697782   -0.0225690   -0.1690671 
O    -2.4809447    3.8325164   -0.6270661 
O    -1.6430843    2.6888491    1.3010636 
H    -1.8343734    1.9064578    1.9086141 
