13
Energy =
C    -3.7010330    1.6836547    0.2894782 
C    -2.4908355    2.6156165    0.1693905 
C    -5.0228641    2.3261712   -0.2041228 
H    -4.8611466    3.3459096   -0.6219363 
H    -5.7392575    2.4267252    0.6408260 
H    -5.5220984    1.7177955   -0.9895931 
N    -3.4810116    0.4016140   -0.3994986 
H    -3.7794888    1.4846185    1.3873359 
H    -4.2476363   -0.2678011   -0.1477038 
H    -3.5079453    0.5244524   -1.4392744 
O    -1.8634489    3.0653929    1.3247420 
O    -2.0323218    3.0746488   -1.0653208 
H    -2.5573567    2.6680707   -1.8227343 
