13
Energy =
C    -3.7170297    1.6573598    0.2433015 
C    -2.6519982    2.7476445    0.2323344 
C    -5.1050806    2.1718591   -0.2159897 
H    -5.8427008    2.0770879    0.6097691 
H    -5.4961098    1.6048248   -1.0880812 
H    -5.0680436    3.2434000   -0.5166091 
N    -3.3122141    0.5061378   -0.5778008 
H    -3.7796452    1.3290618    1.3082552 
H    -4.0458847   -0.2394652   -0.5307701 
H    -3.2230709    0.8068945   -1.5794400 
O    -2.0956765    3.1931344    1.4268800 
O    -2.2560193    3.3371860   -0.9637448 
H    -1.5435844    4.0270379   -0.7653758 
