13
Energy =
C    -3.6931254    1.7539236    0.2954330 
C    -2.4280192    2.5502758   -0.0103168 
C    -4.9833770    2.5095534   -0.0903347 
H    -4.7707875    3.4941612   -0.5611332 
H    -5.6043698    2.6944043    0.8129179 
H    -5.6058330    1.9202586   -0.7999008 
N    -3.7054706    0.4356052   -0.3609550 
H    -3.6797864    1.6066935    1.4036036 
H    -3.5825712    0.5612963   -1.3955194 
H    -2.8727539   -0.1168930   -0.0429773 
O    -1.8250604    3.2997246    0.9897810 
O    -1.8987877    2.5813051   -1.2941642 
H    -2.4127394    3.2551268   -1.8420136 
