13
Energy =
C    -3.7391855    1.6595381    0.3341896 
C    -2.5746019    2.6601265    0.4474271 
C    -5.0900567    2.3160399    0.0248581 
H    -5.0277239    2.8488812   -0.9532669 
H    -5.3566772    3.0508883    0.8144182 
H    -5.8872791    1.5452986   -0.0450000 
N    -3.5310803    0.6629923   -0.7201398 
H    -3.7928297    1.1527167    1.3356184 
H    -3.0437567    1.0893759   -1.5455448 
H    -2.8729102   -0.0706557   -0.3619376 
O    -1.7881293    2.6660959    1.5926435 
O    -2.2951507    3.5660238   -0.5825665 
H    -2.8668127    3.4375936   -1.4050753 
