13
Energy =
C    -3.7289022    1.6817617    0.3102247 
C    -2.6777913    2.7896911    0.3013856 
C    -5.1109411    2.1855949   -0.1918879 
H    -5.8608608    2.1214522    0.6257766 
H    -5.5136442    1.6103711   -1.0501228 
H    -5.0666273    3.2496425   -0.5192854 
N    -3.2904848    0.4645540   -0.4164451 
H    -3.8342117    1.4104472    1.3878017 
H    -3.9159038    0.2068546   -1.2139634 
H    -2.3436536    0.5966588   -0.8497212 
O    -2.3091019    3.3992053   -0.8905643 
O    -2.0638063    3.1820193    1.4825326 
H    -1.3244669    2.5289938    1.6981646 
