13
Energy =
C    -3.7867365    1.7698319    0.3114651 
C    -2.5114663    2.5881007    0.5680364 
C    -4.8059583    2.4739622   -0.6238729 
H    -5.7606064    2.6529512   -0.0841088 
H    -5.0389358    1.8703532   -1.5271708 
H    -4.4404179    3.4622883   -0.9841458 
N    -3.4889049    0.4279941   -0.2186098 
H    -4.2399606    1.6631446    1.3261519 
H    -4.3732421   -0.1302496   -0.2951382 
H    -3.0795780    0.5062126   -1.1820699 
O    -2.5529425    3.9753895    0.4915220 
O    -1.3245927    1.9863275    0.9832122 
H    -1.4254374    0.9847175    1.0578700 
