13
Energy =
C    -3.6671781    1.7257070    0.4821762 
C    -2.4557049    2.6365724    0.2750761 
C    -4.8775243    2.2082663   -0.3354647 
H    -5.1339379    3.2564755   -0.0617627 
H    -5.7628096    1.5702461   -0.1262614 
H    -4.6550016    2.1764225   -1.4247614 
N    -3.3599292    0.3153724    0.1652030 
H    -3.9216293    1.8215917    1.5661135 
H    -3.5535821   -0.2820034    1.0043875 
H    -3.9535729   -0.0665602   -0.6098782 
O    -2.2937591    3.7368989    1.1075108 
O    -1.5582663    2.4560323   -0.7770682 
H    -1.7533163    1.6016656   -1.2758619 
