13
Energy =
C    -3.6866700    1.7118430    0.2809249 
C    -2.5815721    2.7569685    0.1179725 
C    -5.0788387    2.2521916   -0.1127970 
H    -5.5390691    1.6467564   -0.9241819 
H    -5.0329014    3.3070746   -0.4675820 
H    -5.7662091    2.2167823    0.7587189 
N    -3.4317249    0.4821597   -0.4880614 
H    -3.6947247    1.4605534    1.3675052 
H    -3.2714786    0.7312950   -1.4947739 
H    -2.5330092    0.0505562   -0.1615453 
O    -1.3830401    2.4327070   -0.5043060 
O    -2.7377350    4.0268320    0.6578145 
H    -2.5521483    3.9905551    1.6493430 
