13
Energy =
C    -3.6694169    1.6841897    0.2149344 
C    -2.3316513    2.4050110    0.0570885 
C    -4.8106134    2.6682239    0.5037464 
H    -5.7622795    2.1223794    0.6739863 
H    -4.9474927    3.3580809   -0.3574880 
H    -4.5865335    3.2716097    1.4111091 
N    -4.0322994    0.9113995   -0.9834706 
H    -3.5423070    1.0028416    1.0889336 
H    -3.2561623    0.2410922   -1.2062561 
H    -4.8653007    0.3147337   -0.7670709 
O    -1.9614032    3.3925228    0.9600969 
O    -1.4331910    2.0376592   -0.9359107 
H    -1.6860871    2.5216863   -1.7846121 
