13
Energy =
C    -3.8043874    1.5937300    0.2483715 
C    -2.8332288    2.6147193    0.8668853 
C    -5.0967675    2.2357482   -0.3543571 
H    -5.1112041    3.3466193   -0.1713201 
H    -6.0037921    1.7914901    0.1077532 
H    -5.1851274    2.1332627   -1.4550198 
N    -3.1183883    0.7727456   -0.7630787 
H    -4.0943426    0.9459805    1.1176902 
H    -3.0917527   -0.2265972   -0.4512883 
H    -3.5761673    0.7741518   -1.7025505 
O    -2.2719240    2.3595942    2.1133943 
O    -2.5971498    3.8485462    0.2500157 
H    -2.8869062    3.8601946   -0.7197086 
