13
Energy =
C    -3.5644210    1.5371182    0.0227055 
C    -2.4580363    2.5962537    0.1088071 
C    -4.9619625    2.0869701    0.3907933 
H    -5.3723683    1.5497634    1.2722297 
H    -5.6849598    1.9528540   -0.4437181 
H    -4.9395205    3.1732648    0.6335151 
N    -3.6396019    0.9253515   -1.3133251 
H    -3.3040715    0.7469855    0.7654458 
H    -3.7711346    1.6789245   -2.0333410 
H    -2.7263413    0.4629192   -1.5388398 
O    -2.6996602    3.8858591   -0.3487055 
O    -1.1837840    2.2828476    0.5819846 
H    -1.0822338    1.3054536    0.8095252 
