13
Energy =
C    -3.6972497    1.5681218    0.0803581 
C    -2.5533408    2.5076311    0.4712661 
C    -5.0561279    2.2764073    0.0045699 
H    -5.0775494    3.0247685   -0.8154130 
H    -5.2856512    2.7905366    0.9640331 
H    -5.8555315    1.5297861   -0.1956759 
N    -3.4664361    0.8750882   -1.1969457 
H    -3.7467288    0.8097775    0.9011866 
H    -3.3170108    1.5660713   -1.9696003 
H    -2.5857250    0.3082387   -1.1311558 
O    -1.8324766    2.2421141    1.6273387 
O    -2.2060900    3.6200360   -0.2951991 
H    -2.7918219    3.7197497   -1.1082720 
