13
Energy =
C    -3.6844940    1.6010412    0.1199746 
C    -2.7116252    2.7516412    0.3400866 
C    -5.1341979    2.0963635   -0.0269009 
H    -5.2264567    2.7682912   -0.9097976 
H    -5.4403641    2.6675607    0.8769426 
H    -5.8328635    1.2416326   -0.1506862 
N    -3.3200165    0.8053402   -1.0620037 
H    -3.6006931    0.9614727    1.0311349 
H    -4.0067596    0.0270037   -1.1983416 
H    -3.3556151    1.4122664   -1.9178314 
O    -2.0370113    2.8728347    1.5507359 
O    -2.5191379    3.7109521   -0.6498421 
H    -1.8411962    4.3877175   -0.3250231 
