13
Energy =
C    -3.6421929    1.6454930    0.2214806 
C    -2.3898092    2.4949220    0.0322387 
C    -4.9315416    2.4855212    0.1804301 
H    -5.8119414    1.8538711    0.4277970 
H    -5.0868012    2.9246220   -0.8293297 
H    -4.8820471    3.3100336    0.9258460 
N    -3.7278620    0.5730575   -0.7813175 
H    -3.5329587    1.1864331    1.2338149 
H    -4.6009778    0.0124764   -0.6401803 
H    -3.7637952    0.9854206   -1.7454362 
O    -1.5250416    2.7005082    1.0989774 
O    -2.1356537    3.1329313   -1.1769667 
H    -2.7157566    3.9548165   -1.2426413 
