13
Energy =
C    -3.8131489    1.9658133    0.5912562 
C    -2.5027389    2.7284353    0.3777754 
C    -4.7590284    2.0759442   -0.6362248 
H    -5.6851144    2.6201795   -0.3499766 
H    -5.0709927    1.0975967   -1.0547637 
H    -4.2891983    2.6486357   -1.4684042 
N    -3.5559360    0.5581486    0.9644081 
H    -4.3079305    2.4842513    1.4484052 
H    -3.9405835    0.3709816    1.9212727 
H    -3.9985531   -0.1407634    0.3250067 
O    -2.3699170    4.0091173    0.9003713 
O    -1.4699052    2.2126347   -0.4050491 
H    -1.6693497    1.2644825   -0.6872414 
