13
Energy =
C    -3.6651094    1.7115857    0.2813208 
C    -2.5831456    2.7710355    0.0821050 
C    -5.0527941    2.2273854   -0.1449910 
H    -5.0802509    2.4245942   -1.2389044 
H    -5.3029324    3.1690721    0.3934621 
H    -5.8336855    1.4746891    0.1014374 
N    -3.3659908    0.4294663   -0.3986534 
H    -3.6766755    1.5262284    1.3827953 
H    -4.1281905    0.1337205   -1.0534795 
H    -2.4990347    0.4997572   -0.9874746 
O    -2.1961349    3.5731569    1.1468080 
O    -2.0325291    2.9983979   -1.1732012 
H    -2.6630451    3.5823175   -1.7021538 
