13
Energy =
C    -3.7014022    1.7992541    0.3700826 
C    -2.4683295    2.6730105    0.1343060 
C    -4.8954016    2.2700836   -0.4784792 
H    -4.6677986    2.1765021   -1.5632144 
H    -5.1270046    3.3374402   -0.2618520 
H    -5.7980795    1.6658366   -0.2443557 
N    -3.4227087    0.3703144    0.1134080 
H    -3.9569227    1.9511129    1.4481415 
H    -3.6121164   -0.1874959    0.9806057 
H    -4.0343605   -0.0354060   -0.6352424 
O    -2.2670644    3.7822558    0.9457904 
O    -1.5833324    2.4437763   -0.9182453 
H    -1.8139608    1.5877828   -1.3988328 
