13
Energy =
C    -3.7513391    1.6193589    0.2649558 
C    -2.5911830    2.5864697    0.5641033 
C    -5.0941599    2.3417560    0.1048841 
H    -5.0327939    3.0088709   -0.7910109 
H    -5.3175233    2.9596713    1.0013302 
H    -5.9201858    1.6169369   -0.0522615 
N    -3.5456627    0.8758314   -0.9812414 
H    -3.7919204    0.9178300    1.1382732 
H    -2.5667523    0.4976286   -1.0057648 
H    -4.1724796    0.0360020   -0.9859856 
O    -1.9049614    2.4742246    1.7680737 
O    -2.2322357    3.5940639   -0.3362597 
H    -2.7314158    3.5285475   -1.2131732 
