13
Energy =
C    -3.6038935    1.7159400    0.2937935 
C    -2.5793654    2.8329738    0.1158478 
C    -5.0239719    2.2025028    0.0052674 
H    -5.2819667    3.0707576    0.6481696 
H    -5.7525210    1.3840636    0.1827402 
H    -5.0962855    2.5150906   -1.0604645 
N    -3.3529969    0.5537238   -0.5800283 
H    -3.5385203    1.4187588    1.3684108 
H    -2.4454418    0.6553611   -1.0968911 
H    -3.2606051   -0.3099599    0.0047528 
O    -1.4600974    2.8815803    0.9367037 
O    -2.7270374    3.7871740   -0.8833357 
H    -1.9342973    4.4153272   -0.8485440 
