13
Energy =
C    -3.5892053    1.6751526    0.2648840 
C    -2.5923485    2.7899940   -0.0345585 
C    -5.0629186    2.1421590    0.0992850 
H    -5.1250480    3.1864538   -0.2788521 
H    -5.5794902    2.1219140    1.0837807 
H    -5.6591673    1.5143466   -0.5944553 
N    -3.3003573    0.4752460   -0.5490971 
H    -3.4191491    1.4395022    1.3440177 
H    -2.9817223   -0.3092212    0.0673125 
H    -4.1176251    0.1197859   -1.0950451 
O    -2.1798743    3.6355346    0.9879541 
O    -2.1736884    3.0519812   -1.3331864 
H    -2.8549247    3.6471400   -1.7770209 
