15
Energy =
C    -3.8342170    2.5164765    0.1666416 
C    -2.7045463    1.4948571    0.3487444 
H    -3.6060911    3.4499164    0.7245551 
H    -4.7885977    2.1004652    0.5539401 
H    -3.9621622    2.7633183   -0.9091273 
N    -3.0163877    0.2472468   -0.3763929 
H    -2.2902569    0.0447364   -1.1052655 
H    -3.9239011    0.3031099   -0.8946526 
C    -1.3611486    2.0868773   -0.0650719 
H    -2.6372474    1.2493676    1.4348573 
N    -0.3102989    2.2466169    0.8858343 
N    -1.1273163    2.4726093   -1.4188689 
H    -0.1006025    2.6357523   -1.5209532 
H    -1.5791289    3.4044930   -1.5388359 
H    -0.4206516    1.9500615    1.8792322 
