15
Energy =
C    -3.6597476    2.8475434    0.2589320 
C    -2.8487233    1.5605479    0.3952981 
H    -4.7098061    2.6567680    0.5671816 
H    -3.6686556    3.2035029   -0.7915206 
H    -3.2350989    3.6427801    0.9083476 
N    -3.4743722    0.5254824   -0.4334527 
H    -2.9688036   -0.3797275   -0.2854679 
H    -3.3705755    0.7644712   -1.4471051 
C    -1.3813628    1.7688491    0.0484673 
H    -2.8908109    1.2426687    1.4660589 
N    -0.9795998    2.2274640   -1.2422380 
N    -0.3799622    1.4875605    1.0245509 
H     0.5365037    1.8001218    0.6321774 
H    -0.3256080    0.4482868    1.1018361 
H    -1.6800012    2.4431384   -1.9823487 
