15
Energy =
C    -3.9666549    2.2209988    0.0576278 
C    -2.6611070    1.5254101    0.4745601 
H    -4.5558353    2.5014836    0.9558133 
H    -4.5975147    1.5464803   -0.5616998 
H    -3.7832096    3.1438020   -0.5338046 
N    -2.6706146    0.1609267   -0.0810662 
H    -2.5541249   -0.5297083    0.6969313 
H    -1.8610537    0.0014611   -0.7270316 
C    -1.4330611    2.3209291    0.0502614 
H    -2.6285394    1.4781849    1.5930197 
N    -1.1518693    2.5559658   -1.3276751 
N    -0.5674611    2.8742791    1.0379658 
H    -1.0645416    3.7027776    1.4319107 
H     0.2711398    3.2491815    0.5400804 
H    -1.7840544    2.1731288   -2.0636138 
