15
 energy: -2.400142521876 gnorm: 0.000703860054 xtb: 6.4.0 (d4b70c2)
C        -3.82025451676762    2.38583634582963   -0.45573669693721
C        -2.80206875445511    1.75616704649871    0.48167138204985
H        -3.70207599090132    3.46857356093088   -0.50711032517965
H        -4.84096796367915    2.16731372488261   -0.14098911750828
H        -3.69310265987985    1.99051442858030   -1.46297739843332
N        -2.97071911080285    0.30362002834420    0.53913553486164
H        -3.88749527487666    0.05844474989499    0.89172182865214
H        -2.28048943019767   -0.10267126221803    1.15656624524756
C        -1.39776960797401    2.10328341512930    0.05194808221762
H        -2.94197582422536    2.16426932311370    1.49736961922208
N        -0.93462148065007    3.27375539772703    0.25154553602455
N        -0.66971415943899    1.12958958792256   -0.60421764832090
H         0.14568697843013    1.39715121114314   -1.13352134799171
H        -1.13855315313421    0.31737443933083   -0.99081234838411
H        -1.47768337389422    3.95733509584135    0.71008763619445
