15
Energy =
C    -3.2985281    3.1279187    0.3471488 
C    -2.8235333    1.6533425    0.3303734 
H    -2.4912512    3.8271395    0.0376371 
H    -3.5949699    3.4152603    1.3785918 
H    -4.1702513    3.3279542   -0.3077816 
N    -3.6243341    0.8275335   -0.5920475 
H    -4.3782123    1.3554074   -1.0868028 
H    -4.0983059    0.0623501   -0.0572391 
C    -1.3439410    1.5432587   -0.0218033 
H    -2.9309876    1.2518633    1.3681420 
N    -0.3703646    1.3260992    0.9949492 
N    -0.8942747    1.6737669   -1.3688767 
H    -1.2938208    2.5607473   -1.7412181 
H    -1.3341091    0.8917955   -1.9010500 
H    -0.6372540    1.2412615    1.9983714 
