15
Energy =
C    -3.9275750    2.3622756   -0.0610815 
C    -2.7226149    1.5557530    0.4483762 
H    -3.6206233    3.2601520   -0.6395387 
H    -4.5511816    2.7015475    0.7923764 
H    -4.5713004    1.7419947   -0.7224777 
N    -2.8137330    0.1952447   -0.1093278 
H    -2.8179340   -0.4996440    0.6735777 
H    -1.9760261   -0.0393209   -0.6935594 
C    -1.4010895    2.2368730    0.1156554 
H    -2.7747150    1.5108298    1.5662916 
N    -1.0005090    2.4385003   -1.2377884 
N    -0.5640461    2.7166172    1.1645592 
H    -1.0122385    3.5889162    1.5207889 
H     0.3390461    3.0116920    0.7297744 
H    -1.6100107    2.1101961   -2.0178579 
