15
Energy =
C    -3.9041349    2.4981835    0.1081099 
C    -2.6874585    1.6818419    0.5420603 
H    -3.7475068    3.5761216    0.3256469 
H    -4.8025383    2.1493856    0.6610421 
H    -4.0976909    2.3758545   -0.9777900 
N    -2.9599941    0.2648223    0.2818720 
H    -2.1361412   -0.3005979    0.5976387 
H    -3.0541802    0.1007138   -0.7471167 
C    -1.4123921    2.1562884   -0.1371980 
H    -2.5416155    1.8256053    1.6420819 
N    -1.2607616    2.1096486   -1.5547065 
N    -0.3401915    2.6612815    0.6540931 
H    -0.6119006    3.6295753    0.9320619 
H     0.4881515    2.7631630    0.0252527 
H    -2.0236822    1.7543989   -2.1685356 
