15
Energy =
C    -3.9400714    1.4061795   -0.2256230 
C    -2.6831172    1.9128332    0.5262650 
H    -4.8223955    2.0211895    0.0508961 
H    -4.1935651    0.3482811   -0.0145346 
H    -3.8148949    1.4851411   -1.3285630 
N    -2.0902968    0.8653275    1.3783637 
H    -2.6183930   -0.0360096    1.3647357 
H    -2.0764504    1.1880030    2.3737262 
C    -1.6303902    2.4410395   -0.4365169 
H    -2.9960982    2.7752526    1.1638399 
N    -1.2067347    3.8031034   -0.3825476 
N    -1.0561013    1.5797497   -1.4190034 
H    -0.5268383    0.8549354   -0.8870020 
H    -0.3465441    2.1356553   -1.9451987 
H    -1.5969319    4.4716207    0.3153537 
