15
Energy =
C    -3.8522736    2.5424049   -0.1074015 
C    -2.7591363    1.5605465    0.3507595 
H    -3.7521418    2.7491982   -1.1949461 
H    -3.8005094    3.4947796    0.4578597 
H    -4.8592123    2.1138179    0.0858957 
N    -3.0587098    0.2106597   -0.1778744 
H    -2.2754719   -0.1559463   -0.7690268 
H    -3.8946853    0.1978412   -0.8074080 
C    -1.3412773    2.0389202    0.0034546 
H    -2.7861970    1.5054368    1.4650923 
N    -0.9882429    3.4214058    0.0658696 
N    -0.2768188    1.0920795   -0.0950200 
H    -0.1269917    0.7151692    0.8663227 
H     0.5911413    1.6179161   -0.3430339 
H    -1.6786517    4.1787028    0.2459862 
