15
Energy =
C    -3.9098750    2.0612952    0.5299776 
C    -2.5162953    1.4239457    0.4527851 
H    -4.6416715    1.3350489    0.9425897 
H    -4.2467964    2.3834902   -0.4789353 
H    -3.8878292    2.9509590    1.1959481 
N    -2.5418391    0.2290689   -0.4089149 
H    -3.4900442    0.0464137   -0.8140021 
H    -2.2942406   -0.6145190    0.1590990 
C    -1.4906548    2.4203247   -0.0500962 
H    -2.1980935    1.1465348    1.4888369 
N    -1.4290536    2.7724191   -1.4294841 
N    -0.7740097    3.2186448    0.8853276 
H    -1.1920944    4.1733905    0.8308416 
H     0.1956041    3.3014896    0.5076298 
H    -1.9906051    2.2332449   -2.1227483 
