15
Energy =
C    -3.9195866    2.5404427    0.1314911 
C    -2.7204514    1.5771329    0.3674890 
H    -3.6419245    3.5290913   -0.2600546 
H    -4.4562017    2.7100417    1.0891998 
H    -4.6669718    2.1491605   -0.5868803 
N    -2.9275500    0.2956493   -0.3369622 
H    -3.8089265    0.2440689   -0.8948337 
H    -2.9643015   -0.4854599    0.3590137 
C    -1.3135550    2.1022219    0.0540762 
H    -2.6761804    1.3818064    1.4677891 
N    -1.0168919    3.4503985   -0.3242891 
N    -0.2092078    1.2232059    0.2696327 
H     0.6670063    1.7626246    0.0920621 
H    -0.2663216    0.5070414   -0.4870373 
H    -1.6938079    4.2312019   -0.4200162 
