15
Energy =
C    -3.8428835    2.1459694   -0.3385277 
C    -2.6815409    1.7734606    0.5909427 
H    -4.8112190    1.8602705    0.1245657 
H    -3.7422619    1.6244849   -1.3147440 
H    -3.8559589    3.2415945   -0.5242067 
N    -2.6824757    0.3236785    0.8551607 
H    -3.4598829   -0.1775816    0.3635272 
H    -2.8236981    0.1553229    1.8788939 
C    -1.3506256    2.2188189   -0.0007902 
H    -2.8043039    2.3351048    1.5500597 
N    -0.9570193    3.5850043    0.0767014 
N    -0.5398400    1.3272682   -0.7625908 
H    -1.1651167    0.8840955   -1.4683885 
H    -0.2390677    0.5723745   -0.1083875 
H    -1.5462486    4.2888022    0.5694533 
