15
Energy =
C    -3.8419797    2.5403578   -0.0748820 
C    -2.7266472    1.6127543    0.4060707 
H    -3.9457900    2.5033822   -1.1791137 
H    -3.6392286    3.5876778    0.2362834 
H    -4.8085280    2.2180213    0.3687802 
N    -3.0459409    0.2447884   -0.0128655 
H    -2.2716518   -0.3967981    0.2817820 
H    -3.1125661    0.1895766   -1.0558397 
C    -1.3491992    2.0657519   -0.0774188 
H    -2.7189738    1.6457581    1.5226607 
N    -0.3523687    2.4559998    0.8615480 
N    -1.0142427    2.1091575   -1.4639108 
H    -1.6996725    2.7328263   -1.9401243 
H    -1.1162632    1.1459197   -1.8471673 
H    -0.5270826    2.4470514    1.8887448 
