15
Energy =
C    -3.7838277    2.7107644   -0.2499023 
C    -2.8069787    1.7702384    0.4898938 
H    -4.2663384    3.4011250    0.4744383 
H    -4.5911394    2.1526277   -0.7700499 
H    -3.2652707    3.3382656   -1.0074312 
N    -3.2015420    0.3722850    0.2872437 
H    -3.2296398    0.1515381   -0.7357908 
H    -4.1665842    0.2253995    0.6662282 
C    -1.3599203    1.9874017    0.0769659 
H    -2.8482794    1.9957235    1.5848838 
N    -0.9511238    1.8414324   -1.2827499 
N    -0.3866565    2.3351666    1.0602435 
H     0.5122582    2.5138218    0.5593909 
H    -0.2334575    1.4744171    1.6305710 
H    -1.6391098    1.5720514   -2.0171601 
