15
Energy =
C    -3.9549558    2.3051060    0.0005354 
C    -2.6565256    1.6628837    0.5073528 
H    -4.8279912    1.8644222    0.5271610 
H    -4.0749600    2.1433851   -1.0912313 
H    -3.9435534    3.3994705    0.1965653 
N    -2.6669687    0.2070799    0.2599732 
H    -1.8817555   -0.0845726   -0.3693922 
H    -3.5505506   -0.1161413   -0.1996551 
C    -1.4369424    2.3493455   -0.0903398 
H    -2.5958372    1.8279381    1.6113682 
N    -1.1932846    2.3279472   -1.4954860 
N    -0.5348901    3.0554534    0.7577859 
H     0.1412508    3.5600379    0.1413997 
H     0.0201629    2.3285176    1.2605275 
H    -1.8405040    1.8265590   -2.1403405 
