15
Energy =
C    -3.7117563    2.7364370   -0.0195106 
C    -2.6925414    1.7396446    0.5459601 
H    -3.3330683    3.7755136    0.0928103 
H    -4.6751854    2.6547834    0.5266425 
H    -3.8960040    2.5458082   -1.0980324 
N    -3.2144701    0.3748038    0.4150981 
H    -3.4808379    0.1813829   -0.5780587 
H    -4.0860961    0.2815749    0.9872239 
C    -1.3373706    1.8803592   -0.1221651 
H    -2.5213671    1.9622060    1.6294513 
N    -1.1525028    1.5962987   -1.5067796 
N    -0.2583380    2.4636772    0.5979681 
H     0.0025953    3.3282067    0.0747682 
H     0.5439985    1.8046698    0.4888948 
H    -1.9294174    1.2092770   -2.0819354 
