15
Energy =
C    -3.8369216    2.0107780   -0.8240348 
C    -2.9051898    1.9926740    0.3941737 
H    -3.7651514    2.9902020   -1.3448522 
H    -4.8910478    1.8633128   -0.5082486 
H    -3.5577002    1.2100310   -1.5414784 
N    -3.0916857    0.7334883    1.1248857 
H    -2.9891667   -0.0758244    0.4678209 
H    -4.0665457    0.6992346    1.5046575 
C    -1.4535621    2.2191624   -0.0140932 
H    -3.1713616    2.8445214    1.0639867 
N    -0.4073965    1.3214159    0.3547560 
N    -1.0961727    3.4262951   -0.6790029 
H    -0.4974229    3.1425835   -1.4852047 
H    -0.4735450    3.9445644   -0.0208983 
H    -0.5955444    0.4754152    0.9337787 
