15
Energy =
C    -3.8487798    2.6235530   -0.0195532 
C    -2.7327160    1.6934630    0.4528906 
H    -4.8191559    2.2857676    0.4039449 
H    -3.9356912    2.6135987   -1.1260534 
H    -3.6557799    3.6654815    0.3142607 
N    -3.0662431    0.3249227    0.0476963 
H    -2.3100696   -0.3239272    0.3713644 
H    -3.0877132    0.2546998   -0.9966588 
C    -1.3683299    2.1310886   -0.0686251 
H    -2.6980004    1.7384419    1.5693369 
N    -1.0964353    2.1982933   -1.4647453 
N    -0.3230952    2.4706831    0.8387554 
H    -0.1581940    1.6446635    1.4544919 
H    -0.6623801    3.2624007    1.4274368 
H    -1.8246342    1.9666097   -2.1715400 
