15
Energy =
C    -3.7098660    2.8598894   -0.4574225 
C    -2.9411757    1.7578333    0.2715661 
H    -3.3671989    3.8619866   -0.1220418 
H    -4.7985513    2.7698573   -0.2615602 
H    -3.5391942    2.7768195   -1.5532784 
N    -3.3702903    0.4632351   -0.2649970 
H    -4.3935069    0.3373406   -0.0821723 
H    -2.8841302   -0.2999032    0.2619368 
C    -1.4380568    1.9401721    0.1053714 
H    -3.1825050    1.8153474    1.3600559 
N    -0.5871045    2.0312150    1.2471265 
N    -0.8572211    2.0213788   -1.1959628 
H    -1.0585686    1.1084902   -1.6596847 
H     0.1780716    2.0734763   -1.0755791 
H    -0.9672777    1.9786293    2.2159901 
