15
Energy =
C    -4.0302848    2.0064061   -0.1117141 
C    -2.7039619    1.2298201   -0.2069188 
H    -3.9213756    2.9641354    0.4408166 
H    -4.7904149    1.3985256    0.4232359 
H    -4.4437494    2.2346205   -1.1180490 
N    -2.3771775    1.0107433   -1.6203347 
H    -1.4756165    0.4814139   -1.6897044 
H    -2.2356442    1.9286593   -2.1034245 
C    -1.5695713    1.9218857    0.5489045 
H    -2.8549142    0.2308771    0.2708573 
N    -1.0856040    1.3796455    1.7732654 
N    -0.9697632    3.1226385    0.0639342 
H    -1.7333469    3.7941910   -0.1650455 
H    -0.4673417    2.8864287   -0.8179565 
H    -1.4914362    0.5163958    2.1926313 
