15
Energy =
C    -4.0223136    1.9932191    0.0054159 
C    -2.6177332    1.5807748    0.4626769 
H    -4.7858673    1.3176294    0.4448226 
H    -4.0914297    1.9519479   -1.1037733 
H    -4.2412807    3.0328129    0.3311624 
N    -2.3214128    0.1993592    0.0476363 
H    -3.1235994   -0.2485029   -0.4545304 
H    -2.1354736   -0.3856996    0.8951160 
C    -1.5689645    2.5272853   -0.0972837 
H    -2.5868772    1.6581122    1.5760266 
N    -0.7488212    3.3058928    0.7737197 
N    -1.3971598    2.6586580   -1.5084804 
H    -1.0232867    1.7403327   -1.8329444 
H    -0.6387327    3.3578904   -1.6692693 
H    -0.8396468    3.2431671    1.8101870 
