15
Energy =
C    -3.7061332    2.5287240   -0.6466414 
C    -2.8766768    1.7799998    0.4051392 
H    -3.4567739    2.1733479   -1.6686392 
H    -3.5039738    3.6202322   -0.5907994 
H    -4.7893611    2.3649942   -0.4632648 
N    -3.1533712    0.3304948    0.3467414 
H    -2.2999775   -0.2187540    0.0873724 
H    -3.8922389    0.0883243   -0.3543965 
C    -1.3975155    2.1009236    0.2609223 
H    -3.1738771    2.1491243    1.4179378 
N    -0.6643776    1.7199979   -0.9004236 
N    -0.7362639    2.8578913    1.2669043 
H    -0.3021954    3.6714804    0.7777628 
H     0.0547093    2.2636597    1.6004645 
H    -1.1245838    1.1858360   -1.6680458 
