15
Energy =
C    -3.9377590    2.4663663   -0.0176847 
C    -2.7405774    1.6097225    0.4349231 
H    -3.6221105    3.3523094   -0.6096003 
H    -4.4984527    2.8349262    0.8670221 
H    -4.6482138    1.8765399   -0.6365657 
N    -2.9066100    0.2461288   -0.0816953 
H    -2.1246286   -0.3504447    0.2790648 
H    -2.8169494    0.2509326   -1.1247385 
C    -1.4063521    2.2093332    0.0232868 
H    -2.7315729    1.5731768    1.5541858 
N    -1.0928548    2.4588155   -1.3440905 
N    -0.3934159    2.4094646    1.0003448 
H    -0.0375725    3.3799230    0.8523335 
H     0.3903145    1.7718591    0.7373010 
H    -1.7965428    2.2849780   -2.0932763 
