15
Energy =
C    -3.7775103    2.6989036    0.1511649 
C    -2.5109842    1.8649120    0.4748725 
H    -3.7379135    3.2516125   -0.7987248 
H    -3.9503783    3.4476203    0.9535837 
H    -4.6889819    2.0657913    0.0981539 
N    -2.9038226    0.4707938    0.7087624 
H    -3.3406918    0.0847091   -0.1627373 
H    -3.6198484    0.4255845    1.4718774 
C    -1.3387171    1.9173281   -0.5199306 
H    -2.0779079    2.2666451    1.4233532 
N    -1.3234181    2.7071782   -1.7079074 
N    -0.1560549    1.1743643   -0.2336170 
H    -0.4364895    0.1712248   -0.1741288 
H     0.1774749    1.4659575    0.7092601 
H    -2.0835694    3.3192613   -2.0591306 
