15
Energy =
C    -3.8152154    2.5945015    0.1165519 
C    -2.6906702    1.5833528    0.4518894 
H    -4.2802412    2.9683672    1.0534272 
H    -4.6292783    2.1707071   -0.5052984 
H    -3.4231420    3.4786458   -0.4338963 
N    -2.9587953    0.2521754   -0.1223258 
H    -3.8501924    0.1951576   -0.6648317 
H    -3.0319765   -0.4560650    0.6451346 
C    -1.3332016    2.0868294   -0.0179348 
H    -2.6236812    1.4978533    1.5649168 
N    -0.9939824    2.0678764   -1.3996694 
N    -0.4504558    2.7478281    0.8865458 
H    -0.1751255    2.0516724    1.6129623 
H    -0.9882731    3.5130880    1.3485427 
H    -1.6346321    1.6078641   -2.0802815 
