15
Energy =
C    -3.6149297    2.1694850   -1.0942569 
C    -3.0014569    1.8212613    0.2603934 
H    -4.6789933    1.8553650   -1.1274206 
H    -3.0675343    1.6464727   -1.9073809 
H    -3.5650178    3.2655667   -1.2714872 
N    -3.0438197    0.3651727    0.4237155 
H    -4.0436768    0.0546866    0.4534719 
H    -2.6396970    0.1186187    1.3580688 
C    -1.5776063    2.3423965    0.3548811 
H    -3.5962648    2.3175669    1.0661673 
N    -0.5211838    1.7103073   -0.3646037 
N    -1.3118491    3.5539649    1.0598214 
H    -0.3269487    3.8303759    0.8481408 
H    -1.3359143    3.3136367    2.0746204 
H    -0.7174982    0.8337021   -0.8943370 
