15
Energy =
C    -3.9097155    2.5861713    0.1965021 
C    -2.6105727    1.7966880    0.4734885 
H    -4.1273873    3.2676852    1.0457305 
H    -4.7893567    1.9215488    0.0634631 
H    -3.8259163    3.2112518   -0.7193870 
N    -2.9181375    0.3634962    0.5707671 
H    -3.4147956    0.0520477   -0.2981701 
H    -3.5736303    0.2066150    1.3724620 
C    -1.5289650    2.0879677   -0.5604825 
H    -2.1716160    2.1402347    1.4425964 
N    -0.8650097    1.0534711   -1.2834715 
N    -1.0653657    3.4233892   -0.7244541 
H    -1.1272671    3.6278996   -1.7461597 
H    -0.0479215    3.4045163   -0.4926802 
H    -1.0944252    0.0503697   -1.1189589 
