15
Energy =
C    -3.9478940    2.4392728    0.0046297 
C    -2.7182657    1.6378094    0.4703359 
H    -4.4855916    2.8559046    0.8822771 
H    -4.6662064    1.7950989   -0.5474059 
H    -3.6717391    3.2890226   -0.6560823 
N    -2.8760520    0.2390411    0.0550654 
H    -2.0736203   -0.3186793    0.4327305 
H    -2.8159365    0.1721239   -0.9880228 
C    -1.4115262    2.2303361   -0.0306892 
H    -2.6685104    1.6798261    1.5884233 
N    -1.1534128    2.3923685   -1.4226404 
N    -0.3649990    2.5059863    0.8910598 
H    -0.0282117    3.4682652    0.6654511 
H     0.4166319    1.8608662    0.6404622 
H    -1.8819150    2.1604625   -2.1312731 
