15
Energy =
C    -3.6995458    2.4743241   -0.9778893 
C    -3.0059825    1.7568907    0.1954129 
H    -3.0244118    3.1984418   -1.4831231 
H    -4.5837282    3.0360543   -0.6097468 
H    -4.0598034    1.7551566   -1.7444494 
N    -3.1377210    0.3071530    0.0041482 
H    -2.7109469   -0.1937876    0.8186786 
H    -2.6327574    0.0117528   -0.8643898 
C    -1.5652197    2.2276197    0.3794736 
H    -3.5304452    2.0370710    1.1420531 
N    -0.4381704    1.3631597    0.2310450 
N    -1.3318586    3.5651245    0.8067682 
H    -0.6243699    3.9610866    0.1492321 
H    -0.8629667    3.4989604    1.7372361 
H    -0.5190015    0.3641070   -0.0489970 
