15
Energy =
C    -3.7601423    2.6190603   -0.5955668 
C    -2.9051850    1.7057582    0.3037613 
H    -4.4389036    3.2436311    0.0218246 
H    -4.3807451    2.0295028   -1.3041162 
H    -3.1322277    3.3003380   -1.2109997 
N    -3.1640429    0.3067041   -0.0528005 
H    -4.1686043    0.0875661    0.1460781 
H    -2.6052759   -0.3130110    0.5801867 
C    -1.4194967    2.0240804    0.1812346 
H    -3.2018688    1.8745085    1.3670632 
N    -0.6486827    2.3579105    1.3344565 
N    -0.7738958    1.9813426   -1.0908460 
H    -0.8681614    0.9980544   -1.4272237 
H     0.2444051    2.1454969   -0.9312483 
H    -1.0774816    2.4027383    2.2835119 
