15
Energy =
C    -3.8281410    2.5286564    0.4488960 
C    -2.7935992    1.4176071    0.2660781 
H    -3.9018539    3.1514384   -0.4673077 
H    -3.5686035    3.1668530    1.3202160 
H    -4.8264032    2.0752595    0.6297776 
N    -3.2156549    0.5986809   -0.8737070 
H    -2.5894583   -0.2394892   -0.9340162 
H    -3.0698188    1.1389986   -1.7591999 
C    -1.3567243    1.9050980    0.1021884 
H    -2.7989916    0.7904697    1.1914504 
N    -1.0137953    3.2808107   -0.0628187 
N    -0.2990148    0.9572263    0.1768861 
H     0.2810252    1.2321286    1.0002832 
H     0.2953198    1.1232278   -0.6650381 
H    -1.7239681    4.0401472   -0.1163116 
