15
Energy =
C    -2.6189163    2.1485372   -1.5723034 
C    -2.9489784    2.2096239   -0.0854502 
H    -1.8203546    2.8775632   -1.8267149 
H    -3.5264172    2.3872722   -2.1660097 
H    -2.2852563    1.1272926   -1.8509402 
N    -4.0048889    1.2179589    0.1750297 
H    -4.8178554    1.6916475    0.6338924 
H    -3.6868983    0.4795840    0.8463409 
C    -1.7069291    1.9927456    0.7656074 
H    -3.3179859    3.2407619    0.1473980 
N    -0.9912177    0.7607563    0.7313201 
N    -1.1406628    3.0875564    1.4746948 
H    -0.2370471    3.3040993    0.9989573 
H    -0.8909299    2.7205686    2.4196338 
H    -1.3449620   -0.0415167    0.1672948 
