15
Energy =
C    -3.7363184    2.7424905   -0.1304113 
C    -2.7959102    1.6987784    0.5225984 
H    -4.1798253    3.3911245    0.6546030 
H    -4.5754510    2.2973053   -0.7012299 
H    -3.1861110    3.4089184   -0.8309469 
N    -3.2269841    0.3165130    0.2428805 
H    -4.0865922    0.2532776   -0.3478213 
H    -3.4499132   -0.1694203    1.1428679 
C    -1.3571674    1.8908236    0.0779540 
H    -2.8001981    1.8750025    1.6274070 
N    -0.9606888    1.5698795   -1.2536513 
N    -0.4272355    2.5429228    0.9420203 
H     0.4393795    2.7242029    0.3878165 
H    -0.1650155    1.8414376    1.6685634 
H    -1.6420928    1.1043426   -1.8906197 
