15
Energy =
C    -3.9423740    2.3142775    0.0812834 
C    -2.6848970    1.5105091    0.4011693 
H    -4.8373722    1.7764804    0.4596946 
H    -4.0486381    2.4428110   -1.0173921 
H    -3.8940886    3.3164404    0.5572133 
N    -2.8394265    0.1695488   -0.1690417 
H    -1.9920639   -0.3973609    0.0686749 
H    -2.8561785    0.2432130   -1.2148144 
C    -1.4368398    2.2062324   -0.1211904 
H    -2.5996226    1.4251411    1.5108770 
N    -0.4170268    2.6489546    0.7698881 
N    -1.2703366    2.4422762   -1.5151208 
H    -0.3392705    2.0429065   -1.7657067 
H    -1.1814363    3.4765716   -1.6223105 
H    -0.4914498    2.5089253    1.8004770 
