15
Energy =
C    -3.9271258    2.3538436    0.2305943 
C    -2.7293130    1.3833902    0.1275252 
H    -4.6238319    2.2544264   -0.6286885 
H    -3.6012001    3.4156269    0.2784752 
H    -4.5043444    2.1462995    1.1568070 
N    -2.8121490    0.6082650   -1.1144235 
H    -2.8196853    1.2571183   -1.9363132 
H    -3.7096026    0.0695059   -1.1293565 
C    -1.3879947    2.0918519    0.2274411 
H    -2.7635922    0.6754176    0.9929670 
N    -1.0381301    3.1432174   -0.6719060 
N    -0.4143292    1.6333108    1.1623817 
H     0.3749272    2.3172891    1.1467452 
H    -0.0339159    0.7474958    0.7627525 
H    -1.7120039    3.4720672   -1.3955270 
