15
Energy =
C    -3.7710747    2.7463602   -0.0912737 
C    -2.7633639    1.7056672    0.4296329 
H    -4.2065963    3.3177310    0.7548230 
H    -4.6101430    2.2624506   -0.6354979 
H    -3.2960782    3.4705667   -0.7887322 
N    -3.2713688    0.3614725    0.1344493 
H    -2.5986861   -0.3487982    0.5082949 
H    -3.3091429    0.2239387   -0.9034233 
C    -1.3675183    1.9213840   -0.1447955 
H    -2.6901356    1.8179986    1.5382688 
N    -0.2599833    2.1831158    0.7147522 
N    -1.1535392    1.9043939   -1.5554135 
H    -1.1353074    0.9005944   -1.8363506 
H    -0.1895113    2.2679955   -1.7274131 
H    -0.3662817    2.2228580    1.7512135 
