15
Energy =
C    -3.7234841    2.6981793   -0.2686309 
C    -2.7547663    1.6890125    0.3968996 
H    -4.2938742    3.2449125    0.5122323 
H    -4.4672674    2.2269799   -0.9419136 
H    -3.1806225    3.4604369   -0.8698591 
N    -3.0447888    0.2973533   -0.0065582 
H    -2.2225147   -0.1522525   -0.4765733 
H    -3.8496733    0.2039332   -0.6661524 
C    -1.2968357    2.0648124    0.1461171 
H    -2.9061107    1.7477580    1.5023711 
N    -0.7708677    2.0911947   -1.1763979 
N    -0.4265956    2.3811395    1.2293098 
H    -0.4106692    1.5552843    1.8673972 
H    -0.8431704    3.1883672    1.7421498 
H    -1.3760443    1.8567906   -1.9914396 
