15
Energy =
C    -3.8515061    2.5690288   -0.0207695 
C    -2.7613791    1.5663018    0.3733522 
H    -4.8480769    2.2131284    0.3148233 
H    -3.8703090    2.7057649   -1.1239861 
H    -3.6532470    3.5552063    0.4510624 
N    -3.0496914    0.2639276   -0.2343457 
H    -3.0640919    0.3639072   -1.2776852 
H    -3.9999062   -0.0598440    0.0607325 
C    -1.3849690    2.0604981   -0.0403445 
H    -2.7619909    1.4534363    1.4833062 
N    -0.3600325    2.2780821    0.9263566 
N    -1.0874186    2.3015520   -1.4121101 
H    -0.2997667    1.6581839   -1.6456321 
H    -0.7000379    3.2693374   -1.4588245 
H    -0.5176618    2.0890279    1.9392903 
