15
Energy =
C    -3.8220193    2.3868528    0.4952289 
C    -2.5402342    1.5369459    0.4560675 
H    -3.7139184    3.3329323   -0.0797511 
H    -4.0803563    2.6492636    1.5423503 
H    -4.6834210    1.8396400    0.0542467 
N    -2.8444353    0.2599756   -0.1981209 
H    -3.4667585   -0.3038034    0.4276607 
H    -1.9603866   -0.2937145   -0.3021627 
C    -1.4157681    2.2664255   -0.2671323 
H    -2.1923612    1.3464347    1.5017740 
N    -1.4398641    2.4115583   -1.6819871 
N    -0.3996369    2.9447098    0.4671270 
H     0.1132240    2.2296669    1.0271101 
H    -0.8731230    3.6033097    1.1232862 
H    -2.1967895    1.9553715   -2.2350003 
