15
Energy =
C    -3.9801840    2.2479507    0.0396897 
C    -2.6957427    1.5331970    0.4401441 
H    -4.1296718    2.1720028   -1.0585671 
H    -3.9471785    3.3174103    0.3373038 
H    -4.8475382    1.7623442    0.5344569 
N    -2.8084004    0.1422409   -0.0226869 
H    -2.8734490   -0.4980720    0.8019803 
H    -1.9579263   -0.1503571   -0.5617508 
C    -1.4698862    2.2441477   -0.1268382 
H    -2.6186739    1.5614438    1.5543720 
N    -0.5190098    2.8540425    0.7445555 
N    -1.2277443    2.2660388   -1.5337970 
H    -0.2881193    2.6958430   -1.6851399 
H    -1.9206467    2.9285782   -1.9426940 
H    -0.6408357    2.8441148    1.7798912 
