15
Energy =
C    -3.9571163    2.0358790    0.1791057 
C    -2.5624078    1.4405327    0.3660451 
H    -4.1553764    2.2590319   -0.8898745 
H    -4.0623822    2.9741449    0.7646449 
H    -4.7221886    1.3087813    0.5263988 
N    -2.4885114    0.1837548   -0.3847461 
H    -1.5390241   -0.2392339   -0.2552703 
H    -2.5891305    0.3725458   -1.4096629 
C    -1.4667288    2.4197057   -0.0423840 
H    -2.4281476    1.2174647    1.4528773 
N    -1.3825139    2.9244899   -1.3707907 
N    -0.4812686    2.8360232    0.8988861 
H     0.0118910    1.9809230    1.2358680 
H    -0.9772761    3.2755073    1.7048005 
H    -2.0743470    2.6542608   -2.1001088 
