15
 energy: -2.400408310117 gnorm: 0.000907865315 xtb: 6.4.0 (d4b70c2)
C        -3.79208269750587    2.30486178871577   -0.43946848876647
C        -2.77271642957583    1.80772892467050    0.57357134497689
H        -3.76942873017569    3.39151060344188   -0.53103248422435
H        -4.80236836725280    2.00294390591067   -0.16176886995051
H        -3.58013001098771    1.88793122686819   -1.42361977623016
N        -2.87185174803447    0.36221539941596    0.75643359029258
H        -2.13092781003734    0.03007662764015    1.36061331196678
H        -2.77767286257816   -0.10150017881205   -0.13643532221753
C        -1.37783096170956    2.22864093639066    0.17877638704755
H        -2.99167068674791    2.26505160391643    1.55283898849306
N        -0.98601952509712    3.41949345263059    0.41092866308545
N        -0.56782231862690    1.31445654877315   -0.46865133851738
H        -0.72374912137380    0.31595851313643   -0.39409178016193
H         0.41065995899614    1.53348429813409   -0.57261241421015
H        -1.57991670866353    4.06519755554660    0.86115176467870
