15
Energy =
C    -3.6088380    2.0634353   -1.0895880 
C    -2.9330405    1.8123478    0.2570697 
H    -4.6789275    1.7708234   -1.0445513 
H    -3.1154396    1.4594204   -1.8819740 
H    -3.5481563    3.1374066   -1.3667787 
N    -3.0075916    0.3772844    0.5441579 
H    -4.0113350    0.0999790    0.6567028 
H    -2.5503967    0.1907753    1.4682042 
C    -1.4874779    2.2920187    0.2307556 
H    -3.4715608    2.3881168    1.0491776 
N    -0.4866346    1.5442100   -0.4500590 
N    -1.1333492    3.5621403    0.7734749 
H    -1.3602792    3.5411028    1.7913230 
H    -1.7380763    4.2777434    0.3148311 
H    -0.7312136    0.6220713   -0.8697925 
