15
Energy =
C    -3.8091481    2.6627421   -0.2629909 
C    -2.8272838    1.7106396    0.4548645 
H    -3.2823178    3.3775302   -0.9323956 
H    -4.3684299    3.2640045    0.4851873 
H    -4.5544429    2.1130788   -0.8763582 
N    -3.1339125    0.3181023    0.1118978 
H    -3.0927895    0.1858343   -0.9258029 
H    -4.1093601    0.0918496    0.4182635 
C    -1.3726327    2.0329670    0.1519811 
H    -2.9434833    1.8382139    1.5603039 
N    -0.8784131    2.0229432   -1.1869555 
N    -0.4791204    2.3471170    1.2187060 
H     0.4361279    2.6120068    0.7909573 
H    -0.3117405    1.4510472    1.7273068 
H    -1.5067124    1.7805078   -1.9817011 
