15
Energy =
C    -3.8077428    2.6426535   -0.0614505 
C    -2.7388292    1.6407483    0.3963198 
H    -3.8996053    2.6430329   -1.1683754 
H    -3.5501837    3.6685521    0.2805654 
H    -4.7934686    2.3703326    0.3735182 
N    -3.0755135    0.2819935   -0.0692709 
H    -2.3577445   -0.0945035   -0.7325184 
H    -3.9974159    0.2395236   -0.5642305 
C    -1.3341322    2.0712415   -0.0286189 
H    -2.7465966    1.6274097    1.5130114 
N    -0.2705037    2.0913348    0.9174571 
N    -1.0417533    2.4458772   -1.3745505 
H    -1.5571911    3.3302295   -1.5707769 
H    -1.4198549    1.7050034   -2.0022177 
H    -0.4085975    1.7834395    1.9032493 
