15
Energy =
C    -3.5167884    2.4884066    1.0292531 
C    -2.6625513    1.4436572    0.3129793 
H    -3.8810966    3.2513313    0.3076723 
H    -2.9249952    3.0003954    1.8174338 
H    -4.3971930    1.9989869    1.4974416 
N    -3.5141280    0.7256442   -0.6404737 
H    -2.9369957    0.0157754   -1.1497763 
H    -3.8762958    1.3958578   -1.3601176 
C    -1.4575309    2.0834617   -0.3638495 
H    -2.2864784    0.7198322    1.0754120 
N    -0.1320577    1.7203453    0.0182375 
N    -1.6347554    3.0684541   -1.3809937 
H    -1.8500728    2.5465959   -2.2575844 
H    -0.7076997    3.5235386   -1.5367985 
H     0.0516386    1.0126225    0.7614245 
