15
Energy =
C    -3.9961402    2.2247226    0.1132897 
C    -2.6807978    1.5078696    0.4111125 
H    -4.8365589    1.6663796    0.5785852 
H    -4.1795995    2.2702696   -0.9811665 
H    -3.9802021    3.2570173    0.5228981 
N    -2.7794639    0.1380738   -0.0998814 
H    -1.8879701   -0.3677266    0.1147475 
H    -2.8469487    0.1661500   -1.1457899 
C    -1.4878198    2.2493768   -0.1786756 
H    -2.5519855    1.4698527    1.5196265 
N    -0.4760138    2.7862193    0.6718293 
N    -1.3366092    2.3713034   -1.5930621 
H    -0.3874061    2.7676480   -1.7740595 
H    -2.0174613    3.0990189   -1.8998627 
H    -0.5314666    2.7030836    1.7095835 
