15
Energy =
C    -3.4956468    2.3445590    1.1641608 
C    -2.3003075    1.6227724    0.5145130 
H    -3.9199333    3.1342991    0.5077432 
H    -3.1863271    2.8212659    2.1174273 
H    -4.3210042    1.6345334    1.3893444 
N    -2.6209658    0.1830122    0.5087179 
H    -2.0360442   -0.3116209    1.2221057 
H    -2.4604111   -0.2929470   -0.3996028 
C    -1.9368278    2.2527386   -0.8412827 
H    -1.3991287    1.8039147    1.1507093 
N    -1.6456760    1.5154107   -2.0317926 
N    -1.6915959    3.6553957   -0.8795625 
H    -2.2682842    4.0294524   -1.6653549 
H    -0.6953513    3.7682934   -1.1693456 
H    -1.6620778    0.4833279   -2.1463145 
