15
Energy =
C    -3.8837798    2.4401095   -0.2522831 
C    -2.7307047    1.7267177    0.4645191 
H    -3.8951523    2.1961586   -1.3354665 
H    -3.7840104    3.5419398   -0.1426321 
H    -4.8576425    2.1340148    0.1856396 
N    -2.8603954    0.2782621    0.2833865 
H    -2.8579337    0.0398708   -0.7360988 
H    -3.7781567   -0.0435735    0.6713268 
C    -1.3693337    2.2183707   -0.0128205 
H    -2.7947812    1.9576276    1.5560812 
N    -0.9908568    2.1312549   -1.3832044 
N    -0.4294081    2.7587609    0.9128291 
H    -0.2370828    2.0168860    1.6213505 
H    -0.8852979    3.5655967    1.3911002 
H    -1.6277948    1.7146813   -2.0927115 
