15
Energy =
C    -3.8372113    2.5230515   -0.0378381 
C    -2.6828950    1.6189766    0.4105879 
H    -4.7850065    2.2021607    0.4443470 
H    -3.9738368    2.4844689   -1.1390136 
H    -3.6368096    3.5765708    0.2555892 
N    -2.9603091    0.2349234    0.0123226 
H    -3.2004134    0.1920913   -1.0060019 
H    -3.7994723   -0.1121798    0.5336432 
C    -1.3409303    2.0985302   -0.1353553 
H    -2.6135895    1.6629782    1.5247093 
N    -0.4007752    2.7371891    0.7235441 
N    -0.9905080    1.9344176   -1.5086032 
H    -1.7551603    2.3472079   -2.0828712 
H    -0.9600518    0.9080525   -1.6909753 
H    -0.5961807    2.8880713    1.7354990 
