15
Energy =
C    -3.8932479    2.3235136   -0.5824364 
C    -2.7915125    1.7264727    0.3220765 
H    -3.4981741    3.0915652   -1.2801834 
H    -4.6829035    2.7963044    0.0393130 
H    -4.3854384    1.5507747   -1.2109543 
N    -2.8470924    0.2607646    0.2510767 
H    -2.7893876   -0.0516349   -0.7477155 
H    -3.7707006   -0.0678324    0.6204259 
C    -1.3982292    2.2722403   -0.0050331 
H    -2.9784364    2.0330682    1.3810285 
N    -0.3385761    1.4246912   -0.4393798 
N    -1.0845771    3.6412923    0.2509342 
H    -1.2937166    3.8348922    1.2541025 
H    -1.7104354    4.2325091   -0.3356215 
H    -0.4634914    0.3954012   -0.5274971 
