15
Energy =
C    -3.9294454    2.2988869   -0.4924826 
C    -2.7559768    1.7826449    0.3705830 
H    -4.6511352    2.8579670    0.1401722 
H    -4.4884135    1.4717203   -0.9800513 
H    -3.5911746    2.9730696   -1.3073594 
N    -2.8396258    0.3206108    0.4793423 
H    -2.8836309   -0.1072909   -0.4763968 
H    -3.7285573    0.0619825    0.9695695 
C    -1.3923555    2.2501690   -0.1466759 
H    -2.8372315    2.2152572    1.3984560 
N    -0.3937699    1.3309680   -0.5799797 
N    -1.0334626    3.6303746   -0.0800613 
H    -1.1363300    3.9396062    0.9105899 
H    -1.7062108    4.1697685   -0.6646509 
H    -0.5425499    0.3019617   -0.5374078 
