15
Energy =
C    -3.8040813    2.5689996   -0.2900257 
C    -2.7934443    1.6866013    0.4318265 
H    -3.7787926    2.3541718   -1.3798159 
H    -3.5719613    3.6427756   -0.1282569 
H    -4.8270868    2.3562007    0.0844709 
N    -3.1649199    0.2867205    0.1738625 
H    -3.3295011   -0.2025818    1.0842927 
H    -2.3953021   -0.2373827   -0.3040356 
C    -1.3678577    2.0111828   -0.0061929 
H    -2.8707252    1.9073652    1.5241331 
N    -0.3553058    2.2745874    0.9628888 
N    -1.0375471    2.1158604   -1.3914987 
H    -1.0657592    1.1490223   -1.7795993 
H    -0.0430873    2.4290148   -1.4532390 
H    -0.5518553    2.2226961    1.9855195 
