15
Energy =
C    -3.8464025    2.3959624    0.6532060 
C    -2.5213671    1.6429513    0.6006439 
H    -3.6886222    3.4459036    0.9769106 
H    -4.5413254    1.8940458    1.3582785 
H    -4.3107582    2.3992969   -0.3564106 
N    -2.8070744    0.2865459    0.1087691 
H    -2.5769207   -0.4118406    0.8531396 
H    -2.2152501    0.0457145   -0.7216084 
C    -1.4891763    2.3689572   -0.2550898 
H    -2.1062988    1.6039485    1.6373161 
N    -0.1060149    2.0602399   -0.1098213 
N    -1.8924622    3.1289240   -1.3906779 
H    -1.7241381    2.5153777   -2.2177143 
H    -1.2177448    3.9215279   -1.4713031 
H     0.2239003    1.4065563    0.6326688 
