15
Energy =
C    -3.9491707    2.4068765   -0.1360165 
C    -2.6583324    1.8721732    0.4981845 
H    -3.8887162    3.5090101   -0.2635832 
H    -4.8212570    2.1853564    0.5146668 
H    -4.1165499    1.9413227   -1.1308928 
N    -2.8271967    0.4414645    0.7853327 
H    -3.1502835   -0.0575129   -0.0778289 
H    -3.5765687    0.3191328    1.5064809 
C    -1.4430134    2.1481106   -0.3803018 
H    -2.4615084    2.4220498    1.4515924 
N    -0.5399325    1.1130902   -0.7678637 
N    -1.1216532    3.4941767   -0.7263577 
H    -1.7189243    3.7335781   -1.5471522 
H    -0.1378615    3.4980056   -1.0777752 
H    -0.6751628    0.1328441   -0.4407503 
