15
Energy =
C    -3.8906352    2.5140009    0.1326482 
C    -2.6868249    1.6062722    0.4415667 
H    -4.3244795    2.9105382    1.0743243 
H    -4.6929831    1.9563762   -0.3966661 
H    -3.6077745    3.3773854   -0.5074398 
N    -3.0010367    0.2393713    0.0129369 
H    -2.2016188   -0.3869192    0.2672834 
H    -3.0647773    0.2194087   -1.0335478 
C    -1.4060321    2.1137217   -0.2078775 
H    -2.5265886    1.6031347    1.5465952 
N    -0.2848811    2.4994053    0.5823687 
N    -1.2997318    2.2000903   -1.6247512 
H    -0.4651255    1.6304283   -1.8855077 
H    -1.0516275    3.1915312   -1.8362722 
H    -0.3069719    2.4563435    1.6239896 
