15
Energy =
C    -3.6122190    2.9133981    0.2772584 
C    -2.7533169    1.6472038    0.3963685 
H    -3.8090256    3.1611006   -0.7875308 
H    -3.0981481    3.7763212    0.7538386 
H    -4.5860915    2.7619963    0.7898615 
N    -3.4122590    0.5146944   -0.2751085 
H    -4.3260148    0.7812265   -0.7123005 
H    -3.6255066   -0.2331111    0.4257409 
C    -1.3564707    1.8641180   -0.1753899 
H    -2.6334096    1.4231097    1.4847104 
N    -0.2218271    1.9131271    0.6849799 
N    -1.1420309    1.9969449   -1.5794536 
H    -1.7074801    2.8088203   -1.9044059 
H    -1.5382706    1.1391767   -2.0221881 
H    -0.3129219    1.8106919    1.7173397 
