15
Energy =
C    -3.9797490    2.1706834    0.1319621 
C    -2.6042979    1.6406503    0.5254651 
H    -4.7622027    1.6959527    0.7600670 
H    -4.1854031    1.9219710   -0.9306233 
H    -4.0342490    3.2718162    0.2674620 
N    -2.6854846    0.1731670    0.4259869 
H    -2.6431381   -0.2449268    1.3845619 
H    -1.9216341   -0.2636774   -0.1241757 
C    -1.5099911    2.3314855   -0.3040320 
H    -2.4084316    1.9423810    1.5832467 
N    -0.4532529    1.6550639   -0.9903596 
N    -1.4446523    3.7536874   -0.2689329 
H    -1.3642999    4.0628940   -1.2628628 
H    -0.5350167    3.9923509    0.1842891 
H    -0.2917358    0.6301242   -1.0361865 
