15
Energy =
C    -3.9345072    2.5781837   -0.0877958 
C    -2.8123606    1.5433548    0.2159944 
H    -4.6374255    2.6303962    0.7707882 
H    -4.5415610    2.3251687   -0.9796604 
H    -3.5768474    3.6010203   -0.2717935 
N    -2.9014073    0.3882910   -0.7003087 
H    -3.6707810    0.4502693   -1.4040739 
H    -3.0677688   -0.4858719   -0.1488953 
C    -1.3651372    2.0509599    0.2474834 
H    -2.9742247    1.1883101    1.2645587 
N    -0.9859958    3.4268242    0.1399151 
N    -0.3320801    1.1055574    0.5254694 
H     0.5699142    1.6281576    0.5826738 
H    -0.2644041    0.5044017   -0.3247131 
H    -1.6254872    4.2377674    0.0372608 
