15
Energy =
C    -3.7450511    2.4717479    0.4498136 
C    -2.5391883    1.5179177    0.5207683 
H    -4.0034417    2.8396026    1.4646631 
H    -4.6381496    1.9629960    0.0272789 
H    -3.5400410    3.3551992   -0.1932995 
N    -2.9349111    0.2160885   -0.0296371 
H    -3.6183067   -0.2334238    0.6239829 
H    -2.0979673   -0.4146246   -0.0496686 
C    -1.3413808    2.0817014   -0.2202008 
H    -2.2189434    1.3995426    1.5871376 
N    -1.3307324    2.1552949   -1.6419023 
N    -0.3259459    2.7652843    0.5031424 
H    -0.4232621    3.7727872    0.2483323 
H     0.5816335    2.4508280    0.0935869 
H    -2.1040749    1.7121041   -2.1844203 
