15
Energy =
C    -3.6099595    2.8080049    0.3958035 
C    -2.6609143    1.5930821    0.5540169 
H    -4.5986045    2.5527979   -0.0353768 
H    -3.1675616    3.5910476   -0.2585424 
H    -3.7932763    3.2735212    1.3873617 
N    -3.2948673    0.3374374    0.1088401 
H    -4.2687788    0.4594530   -0.2494635 
H    -3.3543398   -0.3297950    0.9131529 
C    -1.3544196    1.8058319   -0.1853686 
H    -2.3743299    1.5080095    1.6329910 
N    -1.3002731    1.7259153   -1.6063182 
N    -0.2395259    2.3586954    0.5047567 
H    -0.1266875    3.3286592    0.1367632 
H     0.5947921    1.8237057    0.1765504 
H    -2.1300135    1.3731296   -2.1300145 
