15
Energy =
C    -3.6127967    2.2494269   -1.1040589 
C    -2.9667905    1.7489803    0.2159097 
H    -4.4817847    2.9015920   -0.8735415 
H    -3.9774948    1.4409241   -1.7673970 
H    -2.9013181    2.8541341   -1.7073502 
N    -3.1143784    0.2813283    0.3532404 
H    -2.2274383   -0.2168223    0.5547429 
H    -3.4990735   -0.1859930   -0.4981302 
C    -1.5482378    2.3185960    0.3908481 
H    -3.5349802    2.2101758    1.0596484 
N    -0.4031937    1.5604513    0.7920949 
N    -1.3875066    3.7320948    0.3099436 
H    -0.5395669    3.8971632   -0.2763051 
H    -1.1458510    4.0553675    1.2727725 
H    -0.3704685    0.5493693    1.0265457 
