15
Energy =
C    -3.6659522    2.8496129    0.1284917 
C    -2.7516812    1.6683192    0.4333202 
H    -3.2298779    3.7961864    0.5130574 
H    -4.6536782    2.6888424    0.6105537 
H    -3.8355411    2.9335884   -0.9656897 
N    -3.3771174    0.4681410   -0.1416452 
H    -3.4734784   -0.2628110    0.6015933 
H    -2.7817620    0.0384540   -0.8883569 
C    -1.3272026    1.8949194   -0.0765277 
H    -2.6940481    1.5708880    1.5457252 
N    -0.2129919    1.6490662    0.7746875 
N    -1.0687790    2.3384224   -1.4085401 
H    -1.4229210    3.3156377   -1.4852466 
H    -1.6246725    1.7425280   -2.0582542 
H    -0.3337788    1.3001929    1.7490467 
