15
Energy =
C    -3.9173338    2.5337919    0.0872409 
C    -2.7204019    1.5788667    0.3615715 
H    -4.6869521    2.0980977   -0.5804493 
H    -3.6450716    3.4918104   -0.3767918 
H    -4.4290707    2.7778469    1.0426894 
N    -2.9200043    0.2754989   -0.3025263 
H    -3.8293912    0.1805905   -0.8085285 
H    -2.8989868   -0.4917090    0.4095945 
C    -1.3076405    2.0989631    0.0428285 
H    -2.6982204    1.4200460    1.4683385 
N    -1.0205475    3.3963492   -0.4800346 
N    -0.1863279    1.2642480    0.3271944 
H    -0.2922325    0.4169546   -0.2726576 
H    -0.2583884    0.9638854    1.3223897 
H    -1.7076225    4.1197540   -0.7627009 
