15
Energy =
C    -3.3914664    3.0297516   -0.5530488 
C    -2.9223827    1.8330095    0.2736499 
H    -2.9654095    3.9736609   -0.1516614 
H    -4.4997221    3.0932055   -0.5068629 
H    -3.1046930    2.9081472   -1.6185403 
N    -3.5529836    0.6333379   -0.2826766 
H    -3.3612141   -0.1706443    0.3613256 
H    -3.0927482    0.3947189   -1.1929964 
C    -1.4061556    1.6780167    0.3663547 
H    -3.2795657    1.9815546    1.3218446 
N    -0.4941040    2.4409654   -0.4230424 
N    -0.8658034    0.7511177    1.2997107 
H    -0.2208918    1.2992759    1.9107861 
H    -0.2610690    0.1042507    0.7470741 
H    -0.8015503    3.1413222   -1.1292509 
