15
Energy =
C    -3.9542158    2.3931380   -0.0818500 
C    -2.6772787    1.7414709    0.4650416 
H    -4.8437145    2.0308883    0.4754292 
H    -4.0837850    2.1535813   -1.1590525 
H    -3.9040665    3.4970573    0.0343912 
N    -2.8373336    0.2819463    0.4297098 
H    -3.1260455   -0.0194208   -0.5316445 
H    -3.6079406    0.0022889    1.0811698 
C    -1.4382109    2.2074958   -0.2914626 
H    -2.5174273    2.0725717    1.5210489 
N    -0.5096898    1.2859763   -0.8619601 
N    -1.1245364    3.5984156   -0.3299435 
H    -1.6953736    4.0024969   -1.1035432 
H    -0.1289726    3.6838214   -0.6346862 
H    -0.6414240    0.2574628   -0.7573519 
