15
Energy =
C    -3.5958537    2.6734376    0.7243103 
C    -2.6951921    1.4795115    0.4100599 
H    -3.9592638    3.1570984   -0.2055962 
H    -3.0453431    3.4246299    1.3305091 
H    -4.4808328    2.3289857    1.3011792 
N    -3.4743307    0.4970768   -0.3499599 
H    -2.8828965   -0.3503154   -0.5196364 
H    -3.7195050    0.8846971   -1.2909928 
C    -1.4259202    1.8942315   -0.3184547 
H    -2.3770503    1.0230514    1.3807668 
N    -1.4754340    2.5728439   -1.5731018 
N    -0.1555231    1.5644222    0.2395014 
H     0.5728521    2.0432191   -0.3366604 
H    -0.0221741    0.5409281    0.0854065 
H    -2.3836917    2.8266251   -2.0153805 
