15
Energy =
C    -3.3834241    3.1016604    0.2318554 
C    -2.7942164    1.6748863    0.3653867 
H    -3.6746014    3.4829601    1.2339285 
H    -4.2851091    3.1580882   -0.4105871 
H    -2.6422875    3.8194068   -0.1828437 
N    -3.5510812    0.6889863   -0.4281003 
H    -4.3575493    1.0977937   -0.9518830 
H    -3.9484592   -0.0424950    0.2068491 
C    -1.3206073    1.6372948   -0.0244094 
H    -2.8422840    1.3897280    1.4450794 
N    -0.3061885    1.6155748    0.9752515 
N    -0.9186063    1.6448672   -1.3927579 
H    -1.3981919    2.4488602   -1.8495489 
H    -1.3067842    0.7744904   -1.8170016 
H    -0.5386983    1.6272703    1.9906868 
