15
Energy =
C    -4.0275443    2.1014660   -0.1054467 
C    -2.6707843    1.7983332    0.5414832 
H    -4.1146036    1.5738873   -1.0797587 
H    -4.1334864    3.1937354   -0.2823052 
H    -4.8527121    1.7745729    0.5617376 
N    -2.5434873    0.3544384    0.8122885 
H    -3.3887105   -0.1875255    0.5138346 
H    -2.4435128    0.2022227    1.8431465 
C    -1.5344624    2.3015837   -0.3324590 
H    -2.5966164    2.3760567    1.4963379 
N    -0.7910072    1.4290730   -1.1796967 
N    -1.2613601    3.6970702   -0.3905762 
H    -1.4667072    3.9894425   -1.3711479 
H    -0.2290898    3.7918512   -0.2682827 
H    -0.9844941    0.4046498   -1.1721141 
