15
Energy =
C    -3.9481457    2.4147783    0.1679351 
C    -2.6848123    1.5786087    0.4414052 
H    -4.3441436    2.8312211    1.1180740 
H    -4.7545025    1.7947392   -0.2810345 
H    -3.7526099    3.2655085   -0.5182882 
N    -2.9370748    0.1919161    0.0353315 
H    -2.0888979   -0.3833859    0.2512015 
H    -3.0473164    0.1554563   -1.0065665 
C    -1.4495754    2.1510822   -0.2462595 
H    -2.4912315    1.5914044    1.5415059 
N    -0.3965665    2.7314579    0.5216461 
N    -1.2968393    2.0522156   -1.6628086 
H    -0.3416131    2.4006443   -1.9018241 
H    -1.9689872    2.7280305   -2.0848611 
H    -0.4541946    2.8097431    1.5596677 
