15
Energy =
C    -3.8280448    2.5689490    0.1039946 
C    -2.7459993    1.4823171    0.1803379 
H    -4.8375815    2.1149134    0.1960565 
H    -3.7764831    3.1061904   -0.8675126 
H    -3.7077548    3.2962514    0.9354155 
N    -2.9771918    0.5082241   -0.8909535 
H    -2.9249595    0.9908233   -1.8202593 
H    -3.9397405    0.1043808   -0.8052512 
C    -1.3093179    2.0074229    0.1207103 
H    -2.8359416    0.9675033    1.1682155 
N    -0.9977190    3.3918927   -0.0197340 
N    -0.2195968    1.0960961    0.2322177 
H    -0.3229754    0.4127120   -0.5498894 
H    -0.3413871    0.5721200    1.1242614 
H    -1.7184805    4.1349320   -0.1206232 
