15
Energy =
C    -4.0275338    2.1298200   -0.0013167 
C    -2.6888755    1.5282363    0.4217748 
H    -4.1510434    2.0760162   -1.1037744 
H    -4.0992551    3.1901277    0.3215818 
H    -4.8566594    1.5557825    0.4650944 
N    -2.6688129    0.1210005    0.0138463 
H    -1.7613412   -0.3054997    0.3158426 
H    -2.6755128    0.0668913   -1.0331333 
C    -1.5132766    2.3038720   -0.1585503 
H    -2.6237192    1.5808505    1.5352271 
N    -0.5884449    2.9679928    0.7009868 
N    -1.2895744    2.3344796   -1.5681912 
H    -0.3568631    2.7764076   -1.7282276 
H    -1.9939138    2.9940512   -1.9632442 
H    -0.6976668    2.9555562    1.7377479 
