15
Energy =
C    -3.7582575    1.7881734   -0.9447856 
C    -2.9222073    1.8797862    0.3380301 
H    -4.7949763    1.4696278   -0.7067299 
H    -3.3030756    1.0582094   -1.6485909 
H    -3.8056013    2.7803045   -1.4439552 
N    -2.8925287    0.5752702    1.0239041 
H    -3.4474018   -0.1563900    0.5207516 
H    -3.3212151    0.6735277    1.9735226 
C    -1.5198678    2.3853046    0.0312474 
H    -3.3852029    2.6486073    1.0039002 
N    -0.3678586    1.5506008    0.1367785 
N    -1.3349745    3.7442174   -0.3503406 
H    -0.8030687    3.7171071   -1.2476717 
H    -0.6896491    4.1571992    0.3584971 
H    -0.4558922    0.5518670    0.4228774 
