15
Energy =
C    -3.8652624    2.5664749   -0.3046629 
C    -2.8300177    1.7143066    0.4405385 
H    -4.8946318    2.2942513    0.0100989 
H    -3.7823870    2.3904803   -1.3992987 
H    -3.7340719    3.6446944   -0.0810529 
N    -3.2267991    0.3079672    0.2895082 
H    -4.1911974    0.1731443    0.6743503 
H    -2.6116470   -0.2830276    0.8973349 
C    -1.3980279    1.9361106   -0.0567930 
H    -2.8335064    1.9961725    1.5218417 
N    -0.9716409    3.1867471   -0.6023669 
N    -0.4005834    0.9514787    0.2138006 
H     0.5239408    1.3540847   -0.0566374 
H    -0.5852155    0.1767241   -0.4602619 
H    -1.6146403    3.9904603   -0.7541575 
