15
Energy =
C    -4.0662372    1.6914845    0.0219307 
C    -2.5974237    1.5455979    0.4369490 
H    -4.1741864    1.5631017   -1.0772852 
H    -4.4449837    2.6999748    0.2945714 
H    -4.6933469    0.9314487    0.5337485 
N    -2.1201338    0.2059557    0.0825912 
H    -2.2115902    0.0681454   -0.9526054 
H    -2.7230784   -0.5149169    0.5429469 
C    -1.7315179    2.6139118   -0.2099172 
H    -2.5225246    1.6730339    1.5431145 
N    -0.9891790    3.5373974    0.5839990 
N    -1.6271964    2.6953550   -1.6285129 
H    -0.6185203    2.5436163   -1.8476284 
H    -1.8426282    3.6842580   -1.8820687 
H    -1.0090100    3.4978322    1.6253555 
