15
Energy =
C    -3.6970724    2.7472691    0.3481575 
C    -2.7403857    1.5627108    0.3908795 
H    -4.6728868    2.4561065    0.7904055 
H    -3.8752243    3.0467567   -0.7067998 
H    -3.2852691    3.6083839    0.9158445 
N    -3.3349857    0.4902694   -0.4206600 
H    -3.6093702   -0.3061489    0.1996477 
H    -2.6429889    0.1068109   -1.1088721 
C    -1.3495398    1.9625455   -0.0939509 
H    -2.6474148    1.2327612    1.4538474 
N    -0.2279335    1.8967426    0.7847192 
N    -1.1389127    2.3659777   -1.4466982 
H    -0.1069729    2.4215930   -1.5979694 
H    -1.4947563    3.3428063   -1.5219460 
H    -0.3252220    1.5863998    1.7753236 
