15
Energy =
C    -3.1972042    3.2787783    0.0900633 
C    -2.8436016    1.8382632    0.4394964 
H    -4.1915090    3.5353799    0.5114942 
H    -3.2475249    3.4013062   -1.0132449 
H    -2.4366545    3.9784244    0.4968223 
N    -3.9116228    0.9792261   -0.0944893 
H    -4.3431836    0.4321752    0.6864746 
H    -3.5421615    0.2758370   -0.7757946 
C    -1.4623687    1.4631159   -0.0903719 
H    -2.8116165    1.7595590    1.5535330 
N    -0.5003774    0.8542200    0.7700133 
N    -1.0958690    1.7552737   -1.4404897 
H    -1.6767530    1.1415328   -2.0506459 
H    -0.1042868    1.4559381   -1.5737749 
H    -0.7218665    0.6322098    1.7642286 
