15
 energy: -2.400322124232 gnorm: 0.000660135146 xtb: 6.4.0 (d4b70c2)
C        -3.76805181540682    2.28963359818483   -0.57641160014607
C        -2.80677825146318    1.82857310943279    0.50724076351128
H        -3.71762447968302    3.36975738719303   -0.72048512454286
H        -4.79767350442376    2.02282026040067   -0.33634669781639
H        -3.51515782271433    1.81529170750247   -1.52416389810079
N        -2.87856443671753    0.37985637670296    0.69940226074506
H        -3.81087796413545    0.09787140483738    0.97513330386112
H        -2.24016688456329    0.09298106563847    1.42975745849912
C        -1.39484719036423    2.23068641505113    0.16289715022825
H        -3.07150191164190    2.31965417718126    1.45915922906261
N        -0.90793811143968    3.32742323658111    0.59272251713014
N        -0.68264746549210    1.37798026833543   -0.65749127473226
H        -0.98312173473750    0.41477005125267   -0.76393008143600
H         0.31789635023730    1.48288132605160   -0.73018699304627
H        -1.44427195859738    3.92704663482703    1.16281040068861
