15
Energy =
C    -3.4796204    2.2888532    1.1530846 
C    -2.5715846    1.4509911    0.2339611 
H    -3.4410720    1.8966715    2.1911766 
H    -4.5375658    2.2601060    0.8134180 
H    -3.1763911    3.3568309    1.1876762 
N    -3.3621431    0.9648129   -0.9023007 
H    -4.0849735    0.2925002   -0.5521638 
H    -2.7400334    0.4057200   -1.5338189 
C    -1.3589235    2.2480768   -0.2411459 
H    -2.1879969    0.5757924    0.8140465 
N    -0.0614039    1.9620863    0.2722978 
N    -1.4828159    3.2704156   -1.2296022 
H    -2.1866049    3.9571299   -0.8856068 
H    -1.8859320    2.8222406   -2.0809317 
H     0.0937407    1.2301980    0.9972873 
