15
Energy =
C    -3.9540377    2.3848980   -0.0260454 
C    -2.7293357    1.5440302    0.3765964 
H    -3.6652962    3.3009044   -0.5852462 
H    -4.5196705    2.6966763    0.8766940 
H    -4.6483090    1.8054527   -0.6719113 
N    -2.8866267    0.1880713   -0.1598351 
H    -2.0759445   -0.3956651    0.1533451 
H    -2.8284603    0.2294810   -1.2060087 
C    -1.4236017    2.1780929   -0.0843979 
H    -2.6995035    1.4824550    1.4909607 
N    -0.4374611    2.5947605    0.8559290 
N    -1.1572128    2.3565555   -1.4712694 
H    -0.2535134    1.8683335   -1.6556331 
H    -0.9686543    3.3748457   -1.6005182 
H    -0.5795103    2.4885228    1.8834800 
