15
Energy =
C    -3.6415146    2.7720721   -0.4752766 
C    -2.8542532    1.8208404    0.4397908 
H    -4.1754437    3.5328060    0.1319808 
H    -4.4022374    2.2184675   -1.0674905 
H    -2.9835563    3.3107582   -1.1905473 
N    -3.3631270    0.4547389    0.2289223 
H    -3.7063463    0.0670615    1.1387665 
H    -2.6099767   -0.1951407   -0.1002017 
C    -1.3516911    1.9255464    0.2110535 
H    -3.0324605    2.1332407    1.5000013 
N    -0.7809815    1.6091652   -1.0573444 
N    -0.4983720    2.3525620    1.2707535 
H     0.4601114    2.4721500    0.8724891 
H    -0.4385434    1.5544948    1.9403546 
H    -1.3926678    1.2982244   -1.8427464 
