15
Energy =
C    -3.5579124    2.6710680    0.8499706 
C    -2.6693108    1.5366250    0.3427527 
H    -3.8531378    3.3225316   -0.0017818 
H    -3.0146723    3.2861831    1.5985672 
H    -4.4781506    2.2643524    1.3175806 
N    -3.4177590    0.7800586   -0.6656233 
H    -4.2385313    0.3167575   -0.2098297 
H    -2.8119492    0.0065365   -1.0287630 
C    -1.3768716    2.0867359   -0.2421670 
H    -2.4080028    0.8726905    1.2017582 
N    -0.1118676    1.6503994    0.2533201 
N    -1.4109884    3.0556109   -1.2900176 
H    -1.8511027    2.5822455   -2.1094936 
H    -0.4237404    3.2606095   -1.5602447 
H    -0.0355175    0.9478413    1.0194873 
