15
Energy =
C    -3.7761747    2.3824413    0.5801970 
C    -2.5192643    1.5208266    0.4906039 
H    -4.2231966    2.5182823   -0.4280684 
H    -3.5335294    3.3804134    1.0024136 
H    -4.5255205    1.8863481    1.2327652 
N    -2.9048739    0.1925036    0.0065800 
H    -2.0515418   -0.4125419   -0.0337216 
H    -3.2504432    0.2752995   -0.9797990 
C    -1.4709484    2.1653787   -0.4036779 
H    -2.0917057    1.4223698    1.5169028 
N    -0.2016963    2.5517518    0.1156471 
N    -1.7441647    2.4076444   -1.7795484 
H    -0.9638835    1.9625481   -2.3107770 
H    -1.6389725    3.4369125   -1.9161965 
H     0.0488448    2.4030748    1.1168694 
