15
Energy =
C    -4.0056653    2.1518395    0.0961001 
C    -2.6518457    1.4506250    0.3451080 
H    -3.8724671    3.2032905   -0.2412928 
H    -4.5978475    2.1769768    1.0356319 
H    -4.6154129    1.6287828   -0.6710748 
N    -2.5401432    0.2574718   -0.5010932 
H    -2.6557608    0.5174587   -1.5081944 
H    -3.3102204   -0.4098453   -0.2605671 
C    -1.4680344    2.3788102    0.1347501 
H    -2.5935867    1.1322622    1.4165066 
N    -1.2064798    2.9734913   -1.1343319 
N    -0.6760327    2.7762125    1.2478653 
H    -0.7951467    3.8093797    1.3358475 
H     0.3150479    2.6178391    0.9610834 
H    -1.7975051    2.7423033   -1.9603012 
