15
Energy =
C    -3.9529996    2.1327736   -0.7402223 
C    -2.8433457    1.7675828    0.2631768 
H    -3.5831978    2.7857199   -1.5603867 
H    -4.7748675    2.6726232   -0.2240999 
H    -4.3973549    1.2243395   -1.2024887 
N    -2.7176932    0.3074973    0.3249082 
H    -2.0045287    0.0540544    1.0489801 
H    -2.3540328   -0.0569936   -0.5872538 
C    -1.5122282    2.4343110   -0.0718262 
H    -3.1512880    2.1364518    1.2726564 
N    -0.8752119    2.2129466   -1.3262232 
N    -0.8561401    3.2655743    0.8824876 
H    -0.7062742    2.6980809    1.7452330 
H    -1.5008533    4.0537610    1.1094829 
H    -1.3168393    1.6146882   -2.0558129 
