15
Energy =
C    -3.7793780    2.6105491    0.1189637 
C    -2.6806215    1.5571137    0.3774491 
H    -3.3943473    3.4823844   -0.4542342 
H    -4.1699391    2.9971356    1.0844773 
H    -4.6407317    2.1920548   -0.4442416 
N    -3.0782746    0.2661345   -0.1948742 
H    -3.3235868    0.3806015   -1.2065308 
H    -3.9401383   -0.0755095    0.2923628 
C    -1.3187576    2.0000958   -0.1513134 
H    -2.5607309    1.4266065    1.4809521 
N    -0.3353528    2.5224159    0.7370026 
N    -1.0085181    1.9497238   -1.5428336 
H    -1.7892420    2.4104185   -2.0568400 
H    -0.9984940    0.9411587   -1.8086255 
H    -0.5111534    2.6061149    1.7603084 
