15
Energy =
C    -3.9858981    2.2275304   -0.0617976 
C    -2.6838492    1.5850634    0.4321444 
H    -4.0005200    2.2572144   -1.1733953 
H    -4.0668510    3.2692542    0.3164525 
H    -4.8629236    1.6510422    0.3002878 
N    -2.5694864    0.2017053   -0.0591829 
H    -3.3989417   -0.0909614   -0.6272426 
H    -2.5201199   -0.4532808    0.7554615 
C    -1.4786761    2.3960475   -0.0145691 
H    -2.7039113    1.5915874    1.5484768 
N    -0.6030616    2.9904309    0.9433126 
N    -1.2125710    2.5851276   -1.4043795 
H    -0.9638057    1.6417052   -1.7738216 
H    -0.3500110    3.1680241   -1.4827740 
H    -0.7580219    2.8787151    1.9679980 
