15
Energy =
C    -3.9169119    2.4736620   -0.0516512 
C    -2.7531497    1.5720011    0.3989597 
H    -3.5630546    3.3369334   -0.6566256 
H    -4.4597163    2.8715422    0.8309592 
H    -4.6498290    1.9124129   -0.6699222 
N    -3.0106336    0.1995468   -0.0510092 
H    -2.2304185   -0.4194371    0.2728598 
H    -3.0046658    0.1697859   -1.0981956 
C    -1.4054760    2.0856060   -0.0955011 
H    -2.7237033    1.5756046    1.5151377 
N    -0.3798476    2.4427469    0.8289320 
N    -1.1610155    2.2526384   -1.4912871 
H    -0.9595288    1.3019499   -1.8686834 
H    -0.2730692    2.7941599   -1.5881787 
H    -0.5137601    2.3549021    1.8592296 
