15
Energy =
C    -3.8846115    2.4546642   -0.4966643 
C    -2.8168888    1.7444621    0.3646108 
H    -3.4231270    3.1423942   -1.2388013 
H    -4.5499576    3.0626032    0.1517611 
H    -4.5205926    1.7384569   -1.0581684 
N    -2.9837445    0.2895830    0.2522747 
H    -2.9415066    0.0085475   -0.7565511 
H    -3.9309984    0.0225926    0.6104713 
C    -1.4034384    2.1922099    0.0102938 
H    -2.9493077    2.0435813    1.4334484 
N    -0.3515465    1.2630837   -0.2407326 
N    -1.0692397    3.5728053    0.0956154 
H    -0.5201970    3.7904639   -0.7651664 
H    -0.4012237    3.6582477    0.8931671 
H    -0.5198248    0.2356863   -0.1909822 
