15
Energy =
C    -3.6097801    1.3529925   -1.0761011 
C    -2.8518967    1.7442431    0.2093620 
H    -3.0487300    1.4900800   -2.0110144 
H    -4.5496029    1.9384462   -1.1562405 
H    -3.8967098    0.2785579   -1.0493263 
N    -2.9001834    0.5756064    1.1071285 
H    -3.5232665    0.7878676    1.9205242 
H    -1.9574679    0.3636728    1.5132975 
C    -1.4219604    2.2878167    0.0537371 
H    -3.4046509    2.5953135    0.6798889 
N    -0.7954600    2.5859497   -1.1953503 
N    -0.7225638    2.6714574    1.2328839 
H    -0.5772597    3.7025856    1.1601990 
H     0.2257250    2.2405511    1.1599706 
H    -1.2020013    2.4428759   -2.1398039 
