15
Energy =
C    -3.8488250    2.4377931   -0.5958042 
C    -2.8388776    1.6352586    0.2251283 
H    -3.9808465    3.4579253   -0.1793035 
H    -4.8355795    1.9257461   -0.5795017 
H    -3.5147393    2.5170826   -1.6528649 
N    -2.9076062    0.2396250   -0.2205823 
H    -2.2228196   -0.3381814    0.3218859 
H    -2.6641469    0.1700855   -1.2371073 
C    -1.4345362    2.2435203    0.1410228 
H    -3.1412396    1.6748035    1.3000425 
N    -0.3453335    1.5717183   -0.4885905 
N    -1.1616414    3.4974307    0.7646069 
H    -1.4544411    3.4330488    1.7635357 
H    -1.7446115    4.2210367    0.2919347 
H    -0.4355624    0.6501917   -0.9622804 
