15
Energy =
C    -3.0969353    2.4723980    1.3531711 
C    -2.4150781    1.4863058    0.4062108 
H    -3.7971447    3.1229067    0.7870389 
H    -2.3436916    3.1031100    1.8724032 
H    -3.6843116    1.9213940    2.1171725 
N    -3.4548782    0.7780583   -0.3454547 
H    -4.0075023    0.1799413    0.3129587 
H    -2.9957500    0.1170441   -1.0169192 
C    -1.4463746    2.2000295   -0.5326098 
H    -1.8277555    0.7578567    1.0162087 
N    -0.0503995    1.9248220   -0.4730814 
N    -1.9070382    3.1273736   -1.5140709 
H    -2.3543560    3.9200018   -1.0085769 
H    -2.6471736    2.6454855   -2.0701076 
H     0.3490131    1.2475661    0.2104153 
