15
Energy =
C    -3.8131216    2.5979706    0.1391243 
C    -2.6971427    1.5629721    0.4261093 
H    -3.4093786    3.5145701   -0.3458694 
H    -4.2926639    2.9117495    1.0906157 
H    -4.6178733    2.2190669   -0.5224631 
N    -2.9592906    0.2741609   -0.2399456 
H    -3.8404025    0.2565694   -0.8015330 
H    -3.0484993   -0.4832017    0.4773056 
C    -1.3300019    2.0912292    0.0145972 
H    -2.6493383    1.4034716    1.5320959 
N    -0.9631455    2.1550056   -1.3586762 
N    -0.4655038    2.6954994    0.9746556 
H    -0.2052090    1.9567097    1.6635071 
H    -1.0125978    3.4323776    1.4706815 
H    -1.5907434    1.7380294   -2.0779831 
