15
 energy: -2.401327378374 gnorm: 0.000578450692 xtb: 6.4.0 (d4b70c2)
C        -3.82520395861211    2.46018592260393   -0.09593739949089
C        -2.64702027941800    1.64560076950648    0.41408564950999
H        -3.88571026611962    2.38929103953814   -1.18154837573091
H        -3.72394380780317    3.51514621830574    0.16134819174390
H        -4.76832108095667    2.09678431413511    0.31296546324155
N        -2.78866070521592    0.23421391177114    0.05875854172362
H        -3.62291463504325   -0.16221153249568    0.47303422767189
H        -1.99290503051001   -0.29142361671102    0.39578247200536
C        -1.35126560891610    2.18491547983083   -0.13553955398533
H        -2.59737755713513    1.72734288962983    1.51340289927753
N        -0.90684862253772    1.72661739825997   -1.23496105173501
N        -0.70442531589411    3.19495463172148    0.55661266287723
H        -1.17670763371921    3.76011707546949    1.24910620199958
H         0.03493234883991    3.70163541940675    0.09689654163569
H        -1.41159603055284    1.00568357797553   -1.68925665911527
