15
Energy =
C    -3.4924729    2.4909322    1.0202957 
C    -2.6490545    1.4467127    0.2888331 
H    -4.3715998    1.9962846    1.4869907 
H    -3.8708002    3.2637842    0.3194769 
H    -2.8963137    2.9846530    1.8176260 
N    -3.4852156    0.8068719   -0.7310875 
H    -2.9102063    0.1116273   -1.2637079 
H    -3.8278779    1.5170563   -1.4195123 
C    -1.3678607    2.0429009   -0.2941664 
H    -2.3481260    0.6709990    1.0347062 
N    -0.0957756    1.6072734    0.1752562 
N    -1.3977042    3.0369857   -1.3177446 
H    -1.9554809    3.8437477   -0.9659469 
H    -1.8835321    2.6288837   -2.1439734 
H     0.0012815    0.8842105    0.9191265 
