27
Energy =
C    -0.7367642    3.1655939   -1.5244112 
C    -0.9874523    1.8862278   -1.1266517 
C     0.0356218    1.1574198   -0.6333371 
C     0.5236995    3.6849382   -1.4201359 
C     1.5414874    2.9272320   -0.9186071 
C     1.2695184    1.6554884   -0.5283172 
N    -0.0141852   -0.1833750   -0.1686116 
C     2.0816562    0.7168782   -0.0138361 
C     1.3509662   -0.3887794    0.2188591 
H    -0.8231921   -0.8449402   -0.1291125 
C     3.5630395    0.8468832    0.2853502 
C     3.8384989    1.4463040    1.6795263 
H     4.0508756    1.4714688   -0.4916699 
H     4.0378356   -0.1578177    0.2216558 
C     3.2327744    0.5996539    2.8021617 
N     3.3890723    2.8532467    1.6847227 
H     4.9365146    1.4062961    1.8637660 
H     3.3043706    3.1971514    2.6731373 
H     4.1284021    3.4462249    1.2414875 
H    -1.5437460    3.7758340   -1.9222490 
H    -1.9822164    1.4596807   -1.1999228 
H     0.7139995    4.7084966   -1.7338080 
H     2.5392921    3.3426146   -0.8272317 
H     1.7350693   -1.3088853    0.6549663 
O     2.7350650    1.1883995    3.9603830 
O     3.2868510   -0.7881046    2.7357603 
H     2.8843656   -1.1617333    3.5860074 
