27
Energy =
C    -0.0000525    4.6344588   -1.6689171 
C    -0.2609309    3.4370269   -2.2666710 
C     0.2840089    2.3239011   -1.7325228 
C     0.7983704    4.6917203   -0.5597577 
C     1.3396552    3.5524422   -0.0408360 
C     1.0620066    2.3715724   -0.6500828 
N     0.1561498    0.9911811   -2.2077924 
C     1.4736607    1.1303121   -0.3487450 
C     0.9627715    0.2815654   -1.2583028 
H    -0.3786986    0.6260747   -3.0297246 
C     2.4208451    0.7343651    0.7617611 
C     3.8947165    0.9600400    0.3588117 
H     2.2675184   -0.3380371    1.0226358 
H     2.1826501    1.3212988    1.6747881 
C     4.2782364    0.1285148   -0.8606850 
N     4.7732119    0.6664235    1.5020135 
H     4.0378257    2.0281938    0.0782028 
H     4.5149193    1.2696021    2.3174872 
H     4.6605222   -0.3352915    1.7918117 
H    -0.4256786    5.5476003   -2.0781482 
H    -0.8870476    3.3745704   -3.1506058 
H     1.0055991    5.6504815   -0.0904009 
H     1.9781178    3.6009279    0.8363068 
H     1.1604496   -0.7890594   -1.2952836 
O     4.1631529   -1.2570331   -0.8287028 
O     4.6300884    0.7468477   -2.0540355 
H     3.7884151    1.0397913   -2.5269770 
