27
Energy =
C    -1.4512966    2.0421644    1.2993313 
C    -1.2859741    0.7264014    0.9873422 
C    -0.0810863    0.3228821    0.5325528 
C    -0.4151648    2.9199862    1.1480101 
C     0.7922406    2.4866825    0.6851070 
C     0.9385844    1.1677173    0.3825362 
N     0.2883734   -0.9869499    0.1475583 
C     2.0197640    0.5101993   -0.0883015 
C     1.6553967   -0.7883573   -0.2468651 
H    -0.2859678   -1.8619232    0.1461006 
C     3.3499560    1.2218884   -0.3885818 
C     4.6626096    0.4842496   -0.8185359 
H     3.5870756    1.8035000    0.5315196 
H     3.1328930    1.9886278   -1.1643831 
C     4.5697248   -1.0252470   -0.9784381 
N     5.7391466    0.8688845    0.1158440 
H     4.9426808    0.8566191   -1.8314339 
H     6.5683617    0.2359468   -0.0015718 
H     6.0676556    1.8365551   -0.1112426 
H    -2.4112382    2.3944953    1.6686783 
H    -2.0985814    0.0164223    1.0989531 
H    -0.5543303    3.9692649    1.3974502 
H     1.6090838    3.1916851    0.5644862 
H     2.2603814   -1.6086065   -0.6178740 
O     4.7835077   -1.8586328    0.1105118 
O     4.1396381   -1.6016573   -2.1749530 
H     4.0049946   -0.9210935   -2.9091017 
