27
Energy =
C    -0.8519953    2.2202528   -1.5095018 
C    -1.0162661    1.3208469   -0.4981289 
C     0.0747571    0.9298050    0.1934776 
C     0.3924793    2.7030723   -1.8068474 
C     1.4798096    2.2914389   -1.0936077 
C     1.2918367    1.3979579   -0.0881682 
N     0.1234774    0.0001908    1.2666401 
C     2.1825439    0.8379588    0.7467787 
C     1.5257297   -0.0049301    1.5627323 
H    -0.6546709   -0.5358930    1.7145782 
C     3.6787531    1.0597363    0.7685714 
C     4.4360668    0.0131844   -0.0763966 
H     4.0294145    1.0220893    1.8245017 
H     3.9298025    2.0801346    0.4023065 
C     5.9380545    0.0613446    0.1956780 
N     4.1419590    0.2410363   -1.5018127 
H     4.1027127   -1.0086794    0.2188292 
H     4.7693774   -0.3624472   -2.0864132 
H     3.1685661   -0.0851903   -1.7080120 
H    -1.7134476    2.5526685   -2.0833062 
H    -1.9956055    0.9250028   -0.2517703 
H     0.5172320    3.4169660   -2.6176342 
H     2.4687564    2.6686266   -1.3382902 
H     1.9869639   -0.6112090    2.3388491 
O     6.5434321    1.2131970    0.6843073 
O     6.7231904   -1.0609218   -0.0361166 
H     6.6135622   -1.7035327    0.7329839 
