27
Energy =
C    -1.3351434    1.3861346   -1.1303273 
C    -1.0610462    0.3924982   -0.2375410 
C     0.2243298    0.1929144    0.1222656 
C    -0.3237822    2.1532729   -1.6399927 
C     0.9673643    1.9320444   -1.2597712 
C     1.2157633    0.9374699   -0.3694335 
N     0.7213182   -0.7773564    1.0335392 
C     2.3789734    0.5265123    0.1588955 
C     2.1258933   -0.4911039    1.0004826 
H     0.2007604   -1.5002168    1.5817151 
C     3.7475559    1.1169790   -0.0959700 
C     3.9721871    2.4395820    0.6810477 
H     3.8571466    1.2973224   -1.1893956 
H     4.5400148    0.3811395    0.1701791 
C     5.2492994    3.1615450    0.2485872 
N     3.9762226    2.1895099    2.1334899 
H     3.1502675    3.1501544    0.4343747 
H     3.0385069    1.8400272    2.4421904 
H     4.6848878    1.4537809    2.3698517 
H    -2.3617578    1.5684439   -1.4385905 
H    -1.8509658   -0.2250713    0.1763957 
H    -0.5494032    2.9429279   -2.3530368 
H     1.7702483    2.5395191   -1.6673633 
H     2.8755535   -1.0201820    1.5844952 
O     6.1490249    2.5467102   -0.6159763 
O     5.5308848    4.4499687    0.7001220 
H     4.8655318    4.7471077    1.4000289 
