27
Energy =
C    -1.3526734    2.6562681   -0.7680773 
C    -1.2100099    1.3360404   -1.0951617 
C     0.0123182    0.7741584   -0.9676189 
C    -0.2778003    3.3777736   -0.3185806 
C     0.9432054    2.7783714   -0.2075742 
C     1.0582226    1.4749422   -0.5455481 
N     0.3938778   -0.5652480   -1.2525039 
C     2.1543472    0.7017094   -0.5213382 
C     1.7988578   -0.5237317   -0.9492240 
H    -0.1921548   -1.3620085   -1.5930668 
C     3.5834271    1.1651161   -0.2567292 
C     3.7733812    1.9938345    1.0508224 
H     3.9069955    1.7886889   -1.1207223 
H     4.2555685    0.2800773   -0.2170498 
C     2.7901424    3.1942520    1.1504319 
N     5.1869246    2.4061540    1.2046139 
H     3.5063962    1.3509032    1.9200947 
H     5.8139828    1.9640227    0.4940904 
H     5.2721318    3.4442204    1.0660976 
H    -2.3252937    3.1338839   -0.8586592 
H    -2.0514038    0.7501256   -1.4489573 
H    -0.3921582    4.4247689   -0.0413937 
H     1.8437157    3.2389064    0.1922437 
H     2.4848032   -1.3532141   -1.1060436 
O     2.7633111    3.8981965    0.3043163 
O     2.6463305    3.8664767    2.3882238 
H     1.7981291    3.5676349    2.8461816 
