27
Energy =
C    -1.4438434    3.1796417    0.6341660 
C    -1.2670056    1.9074354    1.0915693 
C    -0.1426629    1.2506750    0.7369638 
C    -0.4965451    3.7652371   -0.1595266 
C     0.6323848    3.0799217   -0.5036411 
C     0.7846953    1.8127848   -0.0404110 
N     0.2365367   -0.0663246    1.1109916 
C     1.7884598    0.9412314   -0.2293018 
C     1.5035469   -0.1847014    0.4492659 
H    -0.2735198   -0.7647085    1.6998059 
C     3.0475841    1.1630541   -1.0411553 
C     4.1682739    1.8424050   -0.2364199 
H     2.8183564    1.7785930   -1.9365689 
H     3.4164526    0.1840538   -1.4217959 
C     4.6181244    0.9855431    0.9474229 
N     3.7486173    3.2103855    0.1295297 
H     5.0578628    1.9096952   -0.9050740 
H     3.1853720    3.1681306    1.0160420 
H     4.6050904    3.7556718    0.3877986 
H    -2.3394305    3.7324601    0.9076821 
H    -2.0056427    1.4309148    1.7276269 
H    -0.6415890    4.7844835   -0.5111176 
H     1.3991080    3.5475800   -1.1167405 
H     2.1511289   -1.0575167    0.5103275 
O     5.4366533   -0.1161333    0.7251363 
O     4.1645614    1.2391422    2.2377561 
H     4.5610925    0.5509290    2.8638707 
