27
Energy =
C    -1.3423698    2.0253627   -1.1254065 
C    -1.1389154    0.8331777   -0.4958516 
C     0.1149070    0.5220055   -0.1056909 
C    -0.2932027    2.8729271   -1.3523174 
C     0.9655630    2.5342438   -0.9504961 
C     1.1431481    1.3436202   -0.3221846 
N     0.5421397   -0.6653889    0.5465178 
C     2.2643306    0.7821801    0.1563745 
C     1.9496034   -0.4194407    0.6717155 
H    -0.0197559   -1.4915298    0.8554185 
C     3.6648216    1.3501453    0.0818426 
C     4.3359927    1.0442845   -1.2782951 
H     4.2914093    0.9208265    0.8983789 
H     3.6228795    2.4478559    0.2483330 
C     4.5348315   -0.4495370   -1.4911967 
N     5.6260706    1.7581201   -1.3925177 
H     3.6508571    1.3721080   -2.0957930 
H     5.6019752    2.4041865   -2.2162323 
H     5.8516788    2.3368401   -0.5498145 
H    -2.3421431    2.3010001   -1.4513486 
H    -1.9586933    0.1467690   -0.3132413 
H    -0.4630200    3.8202184   -1.8583112 
H     1.7980854    3.2059052   -1.1363258 
H     2.6656080   -1.1251923    1.0914986 
O     4.3541744   -1.0034142   -2.7537672 
O     4.8950317   -1.2819405   -0.4344876 
H     5.0289969   -2.2158032   -0.8001998 
