27
Energy =
C    -1.3967912    1.9343122   -1.1932111 
C    -1.1544499    0.7188125   -0.6252187 
C     0.1018408    0.4427326   -0.2171538 
C    -0.3824717    2.8391999   -1.3438768 
C     0.8800311    2.5350819   -0.9264385 
C     1.0964233    1.3205655   -0.3584953 
N     0.5668710   -0.7612477    0.3759367 
C     2.2299700    0.7824690    0.1183528 
C     1.9586678   -0.4617382    0.5519396 
H     0.0357423   -1.6274122    0.6240010 
C     3.6070890    1.4103657    0.1101415 
C     4.3636998    1.1121514   -1.2053037 
H     4.1995239    1.0211346    0.9703353 
H     3.5158693    2.5079822    0.2554630 
C     4.5990554   -0.3792421   -1.3867118 
N     5.6473047    1.8469342   -1.2426821 
H     3.7215436    1.4214293   -2.0652397 
H     5.6505915    2.5103204   -2.0537279 
H     5.8164178    2.4197151   -0.3820436 
H    -2.3994768    2.1825460   -1.5319561 
H    -1.9455851   -0.0134993   -0.5052768 
H    -0.5827738    3.8044826   -1.8024750 
H     1.6847373    3.2522854   -1.0547079 
H     2.7004022   -1.1644842    0.9332463 
O     4.2633931   -1.0010337   -2.5816074 
O     5.1515753   -1.1372986   -0.3612298 
H     6.1552821   -1.0404981   -0.4200777 
