27
Energy =
C    -1.3916136    0.7770796    0.7916921 
C    -1.0076827   -0.1955443   -0.0827806 
C     0.2454915   -0.1484630   -0.5820643 
C    -0.5184883    1.7678116    1.1461426 
C     0.7427258    1.7931981    0.6274709 
C     1.1038486    0.8150332   -0.2421231 
N     0.8418271   -1.0636869   -1.4898544 
C     2.2696729    0.6104459   -0.8781256 
C     2.1542036   -0.5035731   -1.6224461 
H     0.4296421   -1.9113978   -1.9412594 
C     3.5375697    1.4296798   -0.7590545 
C     4.4841688    0.8567160    0.3137334 
H     3.2987991    2.4950238   -0.5580809 
H     4.0641743    1.4174924   -1.7406050 
C     3.9401692    1.0023121    1.7389026 
N     5.8134503    1.4675673    0.1405715 
H     4.5834669   -0.2418601    0.1398370 
H     5.7893054    2.4873426    0.3734924 
H     6.4857584    1.0195380    0.8093793 
H    -2.3932014    0.7612706    1.2137438 
H    -1.6853213   -0.9921140   -0.3697378 
H    -0.8273991    2.5356444    1.8512384 
H     1.4336395    2.5762990    0.9189378 
H     2.9498479   -0.9356094   -2.2257342 
O     3.6720095   -0.1396926    2.4812328 
O     3.7153276    2.2481983    2.3270178 
H     3.9459713    3.0030898    1.7037731 
