27
Energy =
C    -1.4245364    2.8671557    0.3818459 
C    -1.3712414    1.5072469    0.3023440 
C    -0.1848238    0.9290129    0.0201603 
C    -0.2975054    3.6136359    0.1749270 
C     0.8894107    3.0048124   -0.1100507 
C     0.9204809    1.6496027   -0.1774346 
N     0.0824829   -0.4598839   -0.1133570 
C     1.9453687    0.8209541   -0.4364795 
C     1.4844564   -0.4424941   -0.4095029 
H    -0.5736925   -1.2697264   -0.0259189 
C     3.3913990    1.2005045   -0.6859719 
C     4.2416196    1.4236524    0.6067520 
H     3.4154032    2.0976226   -1.3420390 
H     3.8653156    0.3956586   -1.2910798 
C     3.6218107    0.8775077    1.8917480 
N     4.6110670    2.8439432    0.7442893 
H     5.1873182    0.8421923    0.5065565 
H     5.0505954    3.2009641   -0.1361126 
H     3.7577398    3.4167346    0.9476423 
H    -2.3661734    3.3591410    0.6119873 
H    -2.2549915    0.8994754    0.4632476 
H    -0.3463940    4.6976372    0.2401625 
H     1.7787932    3.5995540   -0.2813223 
H     2.0853011   -1.3324510   -0.5830074 
O     2.7226725    1.6389435    2.6291858 
O     3.9030458   -0.4187476    2.3057830 
H     3.3931106   -1.0635764    1.7231639 
