27
Energy =
C    -1.1514778    1.6251731   -1.2792771 
C    -1.0577019    0.6710714   -0.3102398 
C     0.1362628    0.4842437    0.2902149 
C    -0.0554949    2.3661226   -1.6250793 
C     1.1411700    2.1576455   -1.0043459 
C     1.2115428    1.2021161   -0.0411580 
N     0.4456646   -0.4564356    1.3084735 
C     2.2542901    0.8015266    0.7054832 
C     1.8383971   -0.1867699    1.5167765 
H    -0.1755494   -1.1564248    1.7759991 
C     3.6785869    1.3082082    0.6407701 
C     4.5855218    0.3758139   -0.1969446 
H     4.0734437    1.3638109    1.6810258 
H     3.7132956    2.3470689    0.2491102 
C     6.0615737    0.7228827   -0.0187566 
N     4.1832816    0.3869252   -1.6167362 
H     4.5008236   -0.6660362    0.1959743 
H     3.2639681   -0.1029351   -1.7272845 
H     4.0585279    1.3651690   -1.9658457 
H    -2.1018633    1.7969857   -1.7789170 
H    -1.9168690    0.0732910   -0.0249501 
H    -0.1389221    3.1259356   -2.3988829 
H     2.0073392    2.7489149   -1.2817611 
H     2.4704791   -0.7163849    2.2272395 
O     6.8748195   -0.1435595    0.7018033 
O     6.6104603    1.9129967   -0.4983894 
H     5.9349546    2.4533833   -1.0132271 
