27
Energy =
C    -1.0981205    1.2273343    1.2254532 
C    -0.8962222    0.1032335    0.4812781 
C     0.2694549   -0.0200439   -0.1875146 
C    -0.1345767    2.1956353    1.2859020 
C     1.0357397    2.0473424    0.6016243 
C     1.2147559    0.9202983   -0.1349083 
N     0.6827454   -1.1115802   -0.9969346 
C     2.2645142    0.5297741   -0.8769815 
C     1.9875196   -0.6775975   -1.3994899 
H     0.1716798   -1.9931952   -1.2324047 
C     3.5751371    1.2618032   -1.0661004 
C     4.6527647    0.7863494   -0.0788618 
H     3.4393110    2.3618446   -0.9684292 
H     3.9367782    1.0914355   -2.1041781 
C     4.2695296    1.1003383    1.3655677 
N     5.9284825    1.4107305   -0.4857877 
H     4.7395497   -0.3250726   -0.1408294 
H     6.4195681    1.8494936    0.3320990 
H     6.5755202    0.6768703   -0.8588829 
H    -2.0267945    1.3522777    1.7767575 
H    -1.6476605   -0.6771890    0.4273016 
H    -0.2985468    3.0870288    1.8871511 
H     1.8002453    2.8163868    0.6616627 
H     2.6603271   -1.2571251   -2.0276708 
O     4.2043088    2.4152453    1.8095880 
O     3.9393785    0.0744410    2.2407125 
H     2.9807546   -0.1989739    2.0791811 
