27
Energy =
C    -1.3931175    2.2045686   -0.5515784 
C    -1.1853631    0.9128435   -0.1674793 
C     0.0867043    0.4785864   -0.0461293 
C    -0.3306102    3.0274709   -0.8059068 
C     0.9458915    2.5642952   -0.6766218 
C     1.1281927    1.2754105   -0.2898668 
N     0.5189461   -0.8201068    0.3343810 
C     2.2646400    0.5881564   -0.0936453 
C     1.9428397   -0.6639825    0.2771471 
H    -0.0503875   -1.6597723    0.5887985 
C     3.6764291    1.1131583   -0.2419436 
C     4.0931691    2.0242274    0.9432646 
H     3.7383678    1.6770574   -1.2000932 
H     4.3997482    0.2714219   -0.3339679 
C     5.3866333    2.7929764    0.6484405 
N     4.2274882    1.2435171    2.1925072 
H     3.3121041    2.8084001    1.0721117 
H     3.6495983    1.6870295    2.9451436 
H     3.8727920    0.2638498    2.0996720 
H    -2.4076238    2.5807961   -0.6580091 
H    -2.0165679    0.2461818    0.0356900 
H    -0.5040117    4.0557486   -1.1148336 
H     1.7888511    3.2170840   -0.8839922 
H     2.6563396   -1.4536619    0.5024717 
O     6.0331371    2.6429638   -0.5750475 
O     5.9116438    3.7002873    1.5685644 
H     5.4050750    3.6686383    2.4406894 
