27
 energy: -5.224446755386 gnorm: 0.000566622945 xtb: 6.6.0 (2ccbbd7)
C           -1.44406355369728        2.51469053258335       -0.03590902664384
C           -1.28524798965236        1.16038762316248       -0.14600081515017
C            0.01397342231875        0.64247586941654       -0.22060901554105
C           -0.33569175842243        3.37640550620962        0.00181965756371
C            0.94113499509852        2.89180378494704       -0.06981924602761
C            1.12952659641567        1.50334296700528       -0.18180289467753
N            0.48901660624602       -0.65174038685187       -0.34697340125072
C            2.29525560492553        0.68606142124176       -0.28015369926553
C            1.85997724797242       -0.60975684180784       -0.38826996251186
H           -0.09680278810027       -1.48667771156182       -0.40704211687864
C            3.71227160485517        1.15101289292192       -0.33901451029153
C            4.72016620008944        0.12944121326332        0.19686782943519
H            3.81457334097898        2.08711535315076        0.21901698562155
H            3.97319073585588        1.39023110803779       -1.37391371391405
C            6.12255297650472        0.69354913641945        0.21761969920023
N            4.72338562879488       -1.10540451777982       -0.57143397425713
H            4.44235721788673       -0.12313159859676        1.23205985651936
H            4.99444482554726       -0.89114298110806       -1.52090586151546
H            5.43632456885337       -1.71794552955977       -0.20000748916276
H           -2.43648829934871        2.93019490970985        0.02188006402716
H           -2.12837708737870        0.49395260773365       -0.17817676465852
H           -0.49669582282100        4.43819020178211        0.08801195093195
H            1.79228502312651        3.54857879544433       -0.04336738715905
H            2.50787726838875       -1.46045846973576       -0.50305034669263
O            6.92719816531981        0.23241020448282        0.99565932437859
O            6.41489559875623        1.66840460207286       -0.66991197253292
H            7.35370752491642        1.90233097126396       -0.53602441489417
