27
Energy =
C    -1.3959574    1.7082484   -0.6971080 
C    -0.8804474    0.4463032   -0.6973833 
C     0.4538173    0.3002902   -0.5568090 
C    -0.5708709    2.7894928   -0.5560104 
C     0.7747469    2.6154030   -0.4146243 
C     1.2667692    1.3497004   -0.4179897 
N     1.1837872   -0.9175781   -0.5260706 
C     2.5317537    0.9133836   -0.2959765 
C     2.5210789   -0.4308665   -0.3511996 
H     0.8426710   -1.9026639   -0.6135144 
C     3.7755702    1.7530600   -0.0833765 
C     4.0932524    1.9877919    1.4086573 
H     3.6673669    2.7295049   -0.6016016 
H     4.6421612    1.2456689   -0.5652619 
C     4.3882120    0.6785855    2.1440884 
N     3.0050702    2.7637063    2.0307420 
H     5.0411712    2.5740583    1.4672201 
H     3.2023177    2.8728813    3.0554986 
H     3.0153834    3.7341599    1.6379688 
H    -2.4677192    1.8546877   -0.8074824 
H    -1.5208124   -0.4227217   -0.8057219 
H    -0.9896075    3.7930324   -0.5540551 
H     1.4269670    3.4742073   -0.2991298 
H     3.3980254   -1.0666117   -0.2393424 
O     5.6972745    0.2176334    2.1945441 
O     3.3841041   -0.0923160    2.7286149 
H     2.4746589    0.3190353    2.5737152 
