27
Energy =
C    -1.5510973    1.6702743   -0.5905959 
C    -1.2348276    0.5517660    0.1224498 
C     0.0695426    0.2531819    0.2982948 
C    -0.5619334    2.4627055   -1.1050122 
C     0.7493586    2.1401083   -0.9118260 
C     1.0395888    1.0189907   -0.2039292 
N     0.6099876   -0.8489243    1.0148020 
C     2.2296853    0.4943820    0.1252376 
C     2.0164478   -0.6114942    0.8604743 
H     0.1154108   -1.6230292    1.5155943 
C     3.5949736    1.0588123   -0.2117338 
C     4.0483559    2.2470322    0.6895851 
H     3.5885586    1.3858502   -1.2743589 
H     4.3365626    0.2277517   -0.1722687 
C     5.4116540    1.9688841    1.3327028 
N     3.0192044    2.5954106    1.6885453 
H     4.1808347    3.1345124    0.0308388 
H     2.9808193    1.8512585    2.4284341 
H     3.3049048    3.4748652    2.1808734 
H    -2.5939337    1.9358025   -0.7459721 
H    -2.0069594   -0.0838225    0.5428348 
H    -0.8216632    3.3572351   -1.6660385 
H     1.5363416    2.7747414   -1.3082540 
H     2.7984178   -1.2290669    1.2981799 
O     5.4799909    1.2195691    2.5015057 
O     6.6015208    2.3810884    0.7319156 
H     6.4445557    2.8705388   -0.1361103 
