27
Energy =
C    -1.3451076    2.3256035    1.4265854 
C    -0.9777171    1.0367743    1.6767130 
C     0.1318688    0.5596553    1.0749290 
C    -0.5967163    3.1052859    0.5886576 
C     0.5222310    2.6001070   -0.0062186 
C     0.8661280    1.3122595    0.2535980 
N     0.6911885   -0.7384840    1.2120079 
C     1.9078945    0.5912704   -0.1917204 
C     1.8429716   -0.6318772    0.3640405 
H     0.3529399   -1.5545346    1.7720600 
C     3.0065793    1.0549496   -1.1263125 
C     4.2272937    1.6299494   -0.3802769 
H     2.6127797    1.8191587   -1.8296410 
H     3.3308827    0.1954182   -1.7548949 
C     4.8913841    0.5963341    0.5274127 
N     3.8336917    2.8653763    0.3240924 
H     4.9940035    1.8851947   -1.1461283 
H     3.3007215    2.6113667    1.1919922 
H     4.7000913    3.3409148    0.6737039 
H    -2.2339178    2.7358305    1.8996049 
H    -1.5560083    0.4065591    2.3439899 
H    -0.8923110    4.1345569    0.3997076 
H     1.1244455    3.2240491   -0.6603239 
H     2.5765105   -1.4235254    0.2162410 
O     5.2153982    0.9065811    1.8417446 
O     5.2388679   -0.6526716    0.0272526 
H     6.0915217   -0.5694694   -0.5065719 
