27
Energy =
C    -1.9876440    2.1578866   -0.3765181 
C    -1.3633100    0.9421034   -0.5040802 
C    -0.0198290    0.8760959   -0.4617751 
C    -1.2888369    3.3295129   -0.1731799 
C     0.0715891    3.3568353   -0.0970819 
C     0.6828854    2.1905163   -0.2828595 
N     0.8515146   -0.5301759   -0.5011748 
C     3.4522571    0.3494292   -0.1234448 
C     2.4675501   -0.8217199   -0.2451864 
H     0.5749478   -1.0426935   -1.3685763 
C     4.6426759    0.6236000    0.7331394 
C     4.3269471    1.9262803    1.4943954 
H     5.5571181    0.7327535    0.1096387 
H     4.7798145   -0.2174067    1.4469009 
C     2.8365315    1.9917074    1.8237047 
N     4.7828164    3.0755669    0.6919362 
H     4.8643708    1.9184847    2.4708364 
H     4.2038899    3.1472485   -0.1783471 
H     4.6147992    3.9567798    1.2354083 
H    -3.0736154    2.1943697   -0.4065169 
H    -1.9425872    0.0323485   -0.6170116 
H    -1.8395349    4.2569109   -0.0378623 
H     0.6257487    4.2624327    0.1279711 
H     2.7903053   -1.8119087    0.0628471 
O     2.3795360    2.7510240    2.8940342 
O     1.9334175    1.1988905    1.0744705 
H     1.9924818    1.1364860   -0.4295512 
