27
Energy =
C    -1.3872945    2.4620860    0.5253722 
C    -1.1271781    1.2542566    1.0994652 
C     0.0757138    0.6848025    0.8750268 
C    -0.4448259    3.0689926   -0.2560934 
C     0.7628939    2.4715618   -0.4673276 
C     1.0038849    1.2654321    0.1158344 
N     0.5366311   -0.5563758    1.3713040 
C     2.1061092    0.4868811    0.0549748 
C     1.8484158   -0.6161303    0.7992528 
H     0.0500819   -1.2437013    1.9914260 
C     3.3485660    0.8877919   -0.7553656 
C     4.6970780    0.0809908   -0.8431527 
H     3.6222596    1.9045283   -0.3934124 
H     2.9838752    1.0625011   -1.7951771 
C     5.0658474   -0.2738645   -2.2912054 
N     4.8297802   -1.0344786    0.1037159 
H     5.5114309    0.8003240   -0.5861069 
H     4.6371852   -0.6992018    1.0772441 
H     4.1889222   -1.8186843   -0.1420696 
H    -2.3483955    2.9434828    0.6886349 
H    -1.8643034    0.7573978    1.7211378 
H    -0.6592752    4.0323668   -0.7129810 
H     1.5054678    2.9595702   -1.0915214 
H     2.4873165   -1.4586779    0.9864108 
O     5.4528584    0.7633166   -3.1300615 
O     4.9710920   -1.5541513   -2.8396143 
H     4.7569488   -2.2633414   -2.1628388 
