27
Energy =
C    -1.5770123    2.2596963    0.4562583 
C    -1.2333063    0.9485358    0.6053387 
C     0.0246766    0.5773297    0.2872677 
C    -0.6600023    3.1647566   -0.0031841 
C     0.6057003    2.7645293   -0.3167070 
C     0.9240325    1.4538568   -0.1616854 
N     0.5858598   -0.7248769    0.3768485 
C     2.0828844    0.8174189   -0.3909810 
C     1.9236371   -0.4799977   -0.0771818 
H     0.1423713   -1.6179679    0.6920241 
C     3.3759414    1.4372447   -0.8697517 
C     4.1352195    2.1528067    0.2678980 
H     3.1543763    2.1506790   -1.6944216 
H     4.0393097    0.6567984   -1.3071298 
C     5.2713911    3.0168183   -0.2736368 
N     4.6338818    1.1447679    1.2196330 
H     3.4447161    2.8544019    0.7906822 
H     5.2304956    1.6202223    1.9391319 
H     3.8229364    0.7490939    1.7507843 
H    -2.5836674    2.5866502    0.7046606 
H    -1.9472884    0.2181420    0.9704912 
H    -0.9405580    4.2089690   -0.1187772 
H     1.3331907    3.4843926   -0.6799565 
H     2.7024228   -1.2376877   -0.1380132 
O     5.8598433    3.9745589    0.5458801 
O     5.7291875    2.8713698   -1.5807875 
H     6.4970583    3.5125523   -1.7323710 
