27
Energy =
C    -1.2748696    2.0441417   -1.5038714 
C    -1.1529070    0.8720075   -0.8180790 
C     0.0555646    0.5510109   -0.3105410 
C    -0.1912322    2.8622299   -1.6687178 
C     1.0206263    2.5138589   -1.1482487 
C     1.1168746    1.3437970   -0.4658071 
N     0.3985607   -0.6195570    0.4168655 
C     2.1800533    0.7788126    0.1273172 
C     1.7954108   -0.3967834    0.6554763 
H    -0.2049085   -1.4234815    0.7056439 
C     3.5931561    1.3187877    0.1543063 
C     4.3689884    0.9583903   -1.1268526 
H     4.1424633    0.9229043    1.0396731 
H     3.5641698    2.4216322    0.2834840 
C     4.5988562   -0.5536443   -1.2492433 
N     5.6412638    1.6987500   -1.1136267 
H     3.7659418    1.2748915   -2.0093238 
H     6.2504027    1.3709020   -1.9020539 
H     5.4543051    2.7134630   -1.2927343 
H    -2.2369362    2.3273530   -1.9235876 
H    -2.0005189    0.2087962   -0.6825733 
H    -0.2960146    3.7939849   -2.2193875 
H     1.8809147    3.1619455   -1.2845789 
H     2.4563102   -1.1013388    1.1608337 
O     4.7669683   -1.3323095   -0.1082724 
O     4.6826009   -1.1735153   -2.4964165 
H     4.5906180   -0.5153893   -3.2550106 
