27
Energy =
C    -1.6623880    2.5381155    0.0013087 
C    -1.3730205    1.3502675   -0.6024220 
C    -0.0834989    0.9551048   -0.6508371 
C    -0.6610580    3.3012989    0.5360164 
C     0.6349556    2.8811267    0.4715347 
C     0.8983217    1.6928934   -0.1301672 
N     0.4303940   -0.2288556   -1.2438964 
C     2.0703513    1.0697652   -0.3285591 
C     1.8347282   -0.0715311   -0.9995326 
H    -0.0756793   -1.0094700   -1.7219615 
C     3.4430242    1.5743805    0.0580080 
C     4.0208651    2.5236231   -1.0065104 
H     4.1308738    0.7120500    0.2062593 
H     3.3872943    2.1030883    1.0342313 
C     4.2730487    1.8141813   -2.3341877 
N     5.2369252    3.1503836   -0.4611340 
H     3.2712899    3.3233216   -1.2146853 
H     5.9913549    2.4316208   -0.3511792 
H     5.5902227    3.8610490   -1.1467866 
H    -2.6927154    2.8815857    0.0532195 
H    -2.1537354    0.7357379   -1.0381856 
H    -0.8978574    4.2499479    1.0115489 
H     1.4285214    3.4927408    0.8901798 
H     2.6027809   -0.7601551   -1.3492539 
O     3.9062121    2.4235007   -3.5254035 
O     4.9130150    0.5801280   -2.3753064 
H     5.9034999    0.7185296   -2.2453441 
