27
Energy =
C    -1.2556349    2.8384980    0.3024056 
C    -1.2388534    1.4752997    0.2758674 
C    -0.0616929    0.8545903    0.0511661 
C    -0.1020538    3.5461023    0.1039084 
C     1.0752872    2.8951987   -0.1217498 
C     1.0677565    1.5372877   -0.1415984 
N     0.1730278   -0.5448799   -0.0165587 
C     2.0765798    0.6738788   -0.3395150 
C     1.5835249   -0.5753512   -0.2711288 
H    -0.5028518   -1.3358675    0.0889654 
C     3.5291539    1.0214166   -0.5804825 
C     4.2474940    1.4566641    0.7217457 
H     3.5772401    1.8376678   -1.3369369 
H     4.0683809    0.1590945   -1.0334122 
C     5.5611248    2.1585102    0.3978040 
N     4.4132038    0.3151251    1.6547503 
H     3.6330948    2.2320051    1.2351141 
H     4.0087508   -0.5747823    1.2815998 
H     5.4206404    0.1213819    1.8645658 
H    -2.1899770    3.3645611    0.4821160 
H    -2.1444706    0.8988112    0.4310631 
H    -0.1231123    4.6333033    0.1262491 
H     1.9901520    3.4587961   -0.2809005 
H     2.1657638   -1.4862432   -0.3886072 
O     5.8061499    3.4351376    0.8837572 
O     6.5107909    1.5487679   -0.4127659 
H     7.0460743    0.8974220    0.1408876 
