27
Energy =
C    -1.3101496    2.6539874   -0.4964395 
C    -1.3183712    1.4422814    0.1291062 
C    -0.1499678    0.7779295    0.2513748 
C    -0.1399762    3.1730561   -0.9784861 
C     1.0283802    2.4820073   -0.8404172 
C     0.9939461    1.2754936   -0.2203782 
N     0.0625053   -0.4805570    0.8761259 
C     1.9898291    0.4157794    0.0417944 
C     1.4779173   -0.6366647    0.7042012 
H    -0.6274245   -1.1189626    1.3348147 
C     3.4565562    0.5966504   -0.2919462 
C     4.2324156    1.5527405    0.6656651 
H     3.5384599    0.9741367   -1.3341107 
H     3.9355722   -0.4101975   -0.3153801 
C     5.4661954    0.8762294    1.2488089 
N     3.3546425    2.1023320    1.7173476 
H     4.6179121    2.4008436    0.0533390 
H     3.1055870    1.3374067    2.3923798 
H     3.8799865    2.8197643    2.2705506 
H    -2.2369061    3.2114684   -0.6072971 
H    -2.2361651    1.0191714    0.5231686 
H    -0.1403130    4.1433310   -1.4692108 
H     1.9614718    2.8967475   -1.2091256 
H     2.0560018   -1.4791509    1.0799983 
O     5.3437764   -0.3049702    1.9683778 
O     6.7225702    1.4393266    1.0779377 
H     6.8405065    2.1886629    1.7436474 
