27
Energy =
C    -1.4344631    2.2393284   -0.0603346 
C    -1.1289871    0.9162284   -0.1742075 
C     0.1692855    0.5664020   -0.2888205 
C    -0.4406686    3.1779199   -0.0614120 
C     0.8652398    2.7989451   -0.1816237 
C     1.1476894    1.4749275   -0.2948966 
N     0.6932297   -0.7480168   -0.4047047 
C     2.3306447    0.8446814   -0.4169535 
C     2.0985130   -0.4788824   -0.4747010 
H     0.1875651   -1.6631813   -0.4376192 
C     3.7130261    1.4648747   -0.4538067 
C     4.2553982    1.7589204    0.9609231 
H     3.7096927    2.3850946   -1.0766612 
H     4.4086849    0.7564405   -0.9590339 
C     3.6041130    2.9980018    1.5683940 
N     5.7271292    1.8381756    0.9033930 
H     3.9789112    0.9179366    1.6424817 
H     6.0416227    2.5985536    0.2574272 
H     6.0981260    2.0680199    1.8571599 
H    -2.4722605    2.5476929    0.0427846 
H    -1.9047322    0.1577041   -0.1662346 
H    -0.6921831    4.2309996    0.0483996 
H     1.6517486    3.5467461   -0.1606508 
H     2.8665046   -1.2458531   -0.5524404 
O     2.6282050    2.8346989    2.5385070 
O     3.8232964    4.2805592    1.0657352 
H     4.5770598    4.3015550    0.3984675 
