27
Energy =
C    -0.4883558    3.9240803    0.4355805 
C    -1.0382705    2.6777257    0.3518090 
C    -0.2188728    1.6257933    0.1271221 
C     0.8670603    4.0784071    0.2934213 
C     1.6728136    3.0203955    0.0394396 
C     1.0917856    1.7763117   -0.0296962 
N    -0.5894939    0.2615069    0.0101962 
C     1.6603930    0.5808944   -0.2587758 
C     0.6863531   -0.3413001   -0.2499513 
H    -1.5269365   -0.1805929    0.0811664 
C     3.0972413    0.3061169   -0.6899796 
C     4.2002165    1.0297484    0.1533977 
H     3.2044455    0.5784475   -1.7629486 
H     3.2917695   -0.7804560   -0.6448707 
C     4.1223930    0.7429700    1.6716737 
N     4.1481230    2.4799281   -0.2024233 
H     5.2128450    0.6531638   -0.1165799 
H     4.9412814    2.6445764   -0.8827569 
H     3.0612371    2.7040403   -0.7098839 
H    -1.1122666    4.7866093    0.6377099 
H    -2.1020275    2.5223450    0.4722221 
H     1.3597042    5.0319652    0.4032823 
H     2.9056946    3.3518681    0.0772762 
H     0.8374978   -1.3867292   -0.4857051 
O     4.4705059   -0.5321169    2.1309971 
O     3.7367711    1.6976673    2.6098464 
H     3.5431697    2.5254496    2.0496024 
