27
Energy =
C    -1.4253693    2.6314665   -0.0960132 
C    -1.3748495    1.2925692    0.1509344 
C    -0.1667893    0.6915385    0.1759816 
C    -0.2735952    3.3351364   -0.3096743 
C     0.9348263    2.7037480   -0.2783110 
C     0.9637478    1.3656029   -0.0322819 
N     0.0992238   -0.6763815    0.4191385 
C     2.0213668    0.5315078    0.0498326 
C     1.5323682   -0.7044616    0.3248862 
H    -0.5715119   -1.4538872    0.6217732 
C     3.4690872    1.0163792   -0.1221559 
C     4.7098646    0.0606873   -0.1236665 
H     3.6319672    1.8035133    0.6477200 
H     3.4982143    1.5691628   -1.0877688 
C     4.4385926   -1.4358140   -0.0786313 
N     5.6815824    0.5252030    0.8866661 
H     5.2007623    0.1745609   -1.1202179 
H     5.2579045    0.5161937    1.8441149 
H     6.5180089   -0.1077725    0.8956335 
H    -2.3853616    3.1412049   -0.1229027 
H    -2.2791862    0.7188047    0.3236972 
H    -0.3210047    4.4037672   -0.5060166 
H     1.8454829    3.2704294   -0.4482801 
H     2.0908503   -1.6242645    0.4586405 
O     4.0345476   -2.0676023   -1.2442208 
O     4.4179692   -2.1759342    1.1040388 
H     4.7390632   -1.6500283    1.8995516 
