27
Energy =
C    -1.4076342    1.8757809    1.2467753 
C    -1.3248611    1.4150746   -0.0340013 
C    -0.1012114    1.1665243   -0.5461438 
C    -0.2709983    2.0797998    1.9801961 
C     0.9539734    1.8237398    1.4385282 
C     1.0110210    1.3617548    0.1631970 
N     0.2053824    0.7021089   -1.8529536 
C     2.0756298    1.0466532   -0.5907617 
C     1.6377451    0.6612495   -1.8021855 
H    -0.4383303    0.4487889   -2.6371777 
C     3.5309299    1.1640648   -0.1970093 
C     4.0652339    2.5956329   -0.4223823 
H     4.1366357    0.4403337   -0.7889206 
H     3.6461407    0.8757934    0.8699194 
C     4.0821783    2.9618031   -1.8999654 
N     5.4046562    2.7246461    0.1794964 
H     3.3793392    3.3305818    0.0627665 
H     5.3350158    2.6283054    1.2203338 
H     6.0335950    1.9604777   -0.1671543 
H    -2.3804939    2.0859350    1.6842338 
H    -2.2148798    1.2541430   -0.6329397 
H    -0.3420722    2.4517145    2.9990107 
H     1.8536470    1.9934907    2.0221446 
H     2.2768359    0.3960249   -2.6431615 
O     3.2340785    3.9474372   -2.3862922 
O     4.9167325    2.2907598   -2.7853272 
H     5.8375744    2.6974801   -2.7128193 
