27
Energy =
C    -1.1652515    1.6914556    0.9867219 
C    -1.0497413    0.5601008    0.2346068 
C     0.1201055    0.3289409   -0.3972365 
C    -0.1130726    2.5586991    1.0933151 
C     1.0603692    2.3013940    0.4471808 
C     1.1500308    1.1713297   -0.3009134 
N     0.4524312   -0.7894990   -1.2077111 
C     2.1795988    0.6916416   -1.0159502 
C     1.8089709   -0.4812155   -1.5577595 
H    -0.1356921   -1.6116388   -1.4756086 
C     3.5559837    1.3033771   -1.1436847 
C     4.4769915    0.8474311    0.0016700 
H     3.4709396    2.4127568   -1.1545965 
H     4.0093265    1.0205270   -2.1199371 
C     5.7377576    1.6977938    0.0489147 
N     4.7606651   -0.5925776   -0.1497981 
H     3.9589300    1.0219877    0.9753723 
H     5.3475877   -0.7542481   -1.0028492 
H     5.3170092   -0.9242942    0.6745092 
H    -2.0961870    1.9024049    1.5070293 
H    -1.8719684   -0.1416144    0.1449889 
H    -0.2110133    3.4565283    1.6991717 
H     1.8968048    2.9879879    0.5408874 
H     2.4589847   -1.1277406   -2.1438689 
O     5.9180397    2.6045175    1.0832146 
O     6.6820973    1.6337533   -0.9674482 
H     7.2597445    0.8186606   -0.8274650 
