27
Energy =
C    -1.2575484    1.8426082    0.7529611 
C    -1.1137541    0.6072060    0.1958371 
C     0.0857295    0.2763080   -0.3262001 
C    -0.2044637    2.7139612    0.7771447 
C     0.9989992    2.3558970    0.2444068 
C     1.1202720    1.1195057   -0.3072879 
N     0.4418418   -0.9532485   -0.9395627 
C     2.1815064    0.5285205   -0.8844375 
C     1.8167658   -0.7084672   -1.2676791 
H    -0.1435462   -1.8022304   -1.1144888 
C     3.5703763    1.1129237   -1.0622001 
C     4.5966390    0.5998426   -0.0205853 
H     3.5307722    2.2209213   -1.0175606 
H     3.9338600    0.8700881   -2.0866898 
C     5.0185535   -0.8356003   -0.2877522 
N     4.1115581    0.8021240    1.3582870 
H     5.5401386    1.1797398   -0.1479817 
H     3.7323825    1.7697644    1.4751336 
H     3.3343675    0.1276029    1.5650206 
H    -2.2129621    2.1346406    1.1816208 
H    -1.9378393   -0.0977310    0.1715226 
H    -0.3267528    3.6970564    1.2254642 
H     1.8302174    3.0521821    0.2712698 
H     2.4824697   -1.4410944   -1.7232235 
O     4.2485771   -1.9106249    0.1434876 
O     6.1410865   -1.0844774   -1.0647065 
H     6.2732845   -2.0859801   -1.1256670 
