27
Energy =
C    -1.1215921    2.0339351    0.6589572 
C    -1.0789960    0.9142959   -0.1180218 
C     0.1107695    0.5369482   -0.6311611 
C     0.0203718    2.7445184    0.9072408 
C     1.2115498    2.3412698    0.3789855 
C     1.2284779    1.2259955   -0.3958592 
N     0.3748024   -0.5973369   -1.4447721 
C     2.2553730    0.6249391   -1.0164908 
C     1.7902479   -0.4714722   -1.6397236 
H    -0.2858824   -1.3237281   -1.8043318 
C     3.7065730    1.0465485   -0.9788849 
C     4.4171183    0.4908753    0.2668029 
H     3.7683576    2.1572094   -0.9945581 
H     4.2301586    0.6907045   -1.8942014 
C     5.7795886    1.1433692    0.4427010 
N     4.5036311   -0.9774741    0.1569679 
H     3.8264656    0.7607470    1.1741537 
H     5.2387682   -1.2254530   -0.5511605 
H     4.8477116   -1.3606568    1.0689081 
H    -2.0665486    2.3604855    1.0857881 
H    -1.9740284    0.3357914   -0.3197969 
H    -0.0205058    3.6338671    1.5317184 
H     2.1183495    2.9031253    0.5840829 
H     2.4041619   -1.1844583   -2.1856577 
O     5.9461116    2.1685135    1.3652411 
O     6.8510793    0.7672633   -0.3584951 
H     7.6573083    1.3240777   -0.1039204 
