27
Energy =
C    -1.4439276    2.8032408    0.1205756 
C    -1.3263757    1.6736269   -0.6335143 
C    -0.1120369    1.0926836   -0.7303958 
C    -0.3507495    3.3255292    0.7545984 
C     0.8664365    2.7187279    0.6405664 
C     0.9593828    1.5930461   -0.1120396 
N     0.2240477   -0.0755696   -1.4652554 
C     2.0234358    0.8175368   -0.3785543 
C     1.6267034   -0.1795202   -1.1895032 
H    -0.3886805   -0.6924753   -2.0466078 
C     3.4461727    1.0165063    0.0974369 
C     4.2228031    1.9799938   -0.8170886 
H     3.9572896    0.0277599    0.1226287 
H     3.4631943    1.3969456    1.1415148 
C     5.7236754    1.8433129   -0.5992659 
N     3.7431757    3.3551185   -0.5791813 
H     4.0434306    1.6957129   -1.8823484 
H     4.1883660    3.7271991    0.2960327 
H     4.0926162    3.9671445   -1.3554697 
H    -2.4101500    3.2930483    0.2133491 
H    -2.1824208    1.2490719   -1.1469575 
H    -0.4520133    4.2321887    1.3469824 
H     1.7399755    3.1388365    1.1285688 
H     2.2753331   -0.9552293   -1.5914792 
O     6.5610047    1.5408989   -1.6652807 
O     6.2693681    2.0031446    0.6684479 
H     7.2720880    1.8832905    0.6015119 
