27
Energy =
C    -0.1333618    3.6614721    0.8602059 
C    -0.6239723    2.3904656    0.8997316 
C     0.1950390    1.3769783    0.5479914 
C     1.1578489    3.8895086    0.4730700 
C     1.9665712    2.8484975    0.1225952 
C     1.4566473    1.5894538    0.1672204 
N    -0.1184218   -0.0083301    0.5235717 
C     2.0327510    0.4089732   -0.1221513 
C     1.1262401   -0.5638846    0.0781394 
H    -1.0167257   -0.4852110    0.7684025 
C     3.4489944    0.1665297   -0.6018545 
C     3.5011122   -0.2237336   -2.1011234 
H     3.8877955   -0.6493592    0.0175629 
H     4.0945175    1.0540465   -0.4254711 
C     4.8931610   -0.7538446   -2.4638860 
N     3.0645883    0.9003524   -2.9663179 
H     2.7977019   -1.0665020   -2.2780789 
H     2.8281619    1.7584956   -2.4175911 
H     3.8194938    1.1941538   -3.6336452 
H    -0.7714602    4.4967962    1.1379519 
H    -1.6456212    2.1919245    1.2050954 
H     1.5426587    4.9062541    0.4444480 
H     2.9902156    3.0375075   -0.1831459 
H     1.3076414   -1.6259761   -0.0758084 
O     5.9280257    0.1403928   -2.7111420 
O     5.1747501   -2.1209274   -2.4761420 
H     4.3717747   -2.6881793   -2.2534218 
