27
Energy =
C    -1.5410240    1.8789267    0.1707009 
C    -1.1051339    0.6251578    0.4805010 
C     0.2023176    0.3405408    0.3050188 
C    -0.6647109    2.8154470   -0.3030983 
C     0.6528132    2.5023478   -0.4732934 
C     1.0650392    1.2470965   -0.1589676 
N     0.8552456   -0.8907516    0.5783116 
C     2.2890774    0.6954423   -0.2245581 
C     2.2044414   -0.5727595    0.2149611 
H     0.4558370   -1.7864095    0.9417528 
C     3.5762416    1.3613009   -0.6635883 
C     4.2697398    2.0961963    0.5022320 
H     3.3828263    2.0522003   -1.5117866 
H     4.2678270    0.5803413   -1.0545963 
C     3.5428043    3.3822949    0.8890636 
N     5.6855919    2.3179048    0.1537076 
H     4.2299498    1.4463600    1.4100998 
H     5.7639760    2.9388791   -0.6853136 
H     6.1603991    2.8202059    0.9430694 
H    -2.5881782    2.1369109    0.3091939 
H    -1.7854546   -0.1274341    0.8644572 
H    -1.0180341    3.8182292   -0.5351148 
H     1.3508181    3.2517678   -0.8351323 
H     3.0413709   -1.2627179    0.2981653 
O     2.9438522    3.4700242    2.1370146 
O     3.4047653    4.4548825    0.0059996 
H     3.9214662    4.3110934   -0.8473199 
