27
Energy =
C    -0.4272778    2.6801246    1.5684007 
C    -0.8368575    1.7367106    0.6737422 
C     0.0939402    1.1480949   -0.1063582 
C     0.8961916    3.0101997    1.6640497 
C     1.8180507    2.4014288    0.8643607 
C     1.3872726    1.4657672   -0.0212494 
N    -0.1202572    0.1423269   -1.0866732 
C     2.0804031    0.7268642   -0.9036587 
C     1.2182926   -0.0789537   -1.5487794 
H    -1.0146316   -0.3056464   -1.3912170 
C     3.5774549    0.7381130   -1.1322292 
C     4.3050437   -0.3262637   -0.2790810 
H     3.9942406    1.7474170   -0.9233166 
H     3.7699542    0.5341338   -2.2087973 
C     4.1560461   -0.0517108    1.2189344 
N     5.7292472   -0.4146691   -0.6775615 
H     3.8090765   -1.3137588   -0.4454863 
H     5.9141549   -1.3464294   -1.1218740 
H     6.0059338    0.3094509   -1.3836118 
H    -1.1545305    3.1659645    2.2138470 
H    -1.8816519    1.4579597    0.5903899 
H     1.2178480    3.7549361    2.3880386 
H     2.8690941    2.6573230    0.9553048 
H     1.4937289   -0.8088524   -2.3062166 
O     3.1261820   -0.6628070    1.9230815 
O     4.9701670    0.8629584    1.8847829 
H     5.7436653    1.1268030    1.2938051 
