27
Energy =
C    -1.3297143    2.4570229    0.0117459 
C    -1.2478525    1.1815812   -0.4628769 
C    -0.0259358    0.6213847   -0.5839625 
C    -0.1945831    3.1406608    0.3497959 
C     1.0291504    2.5521186    0.2175600 
C     1.0863080    1.2800560   -0.2537507 
N     0.2776213   -0.6813563   -1.0626027 
C     2.1483675    0.4882355   -0.4752489 
C     1.7076880   -0.6836304   -0.9659116 
H    -0.3694630   -1.4329774   -1.3947372 
C     3.6056349    0.8361049   -0.2681100 
C     4.2159513    1.4945698   -1.5161104 
H     4.1682727   -0.0904141   -0.0160885 
H     3.7269131    1.5184994    0.6018560 
C     5.7334078    1.5667820   -1.3988107 
N     3.5907036    2.8222712   -1.6985647 
H     4.0158115    0.8439210   -2.4015051 
H     4.3151607    3.5789634   -1.7590452 
H     3.0716237    2.8375912   -2.6080122 
H    -2.3012999    2.9331480    0.1182890 
H    -2.1379378    0.6266805   -0.7394750 
H    -0.2672222    4.1598074    0.7221500 
H     1.9316035    3.0989563    0.4748644 
H     2.3416072   -1.5176193   -1.2596980 
O     6.5307743    1.2678930   -2.4965545 
O     6.3353390    1.9550054   -0.2075392 
H     7.3392310    1.9613266   -0.3363185 
