27
Energy =
C    -1.3267772    2.4449599   -0.4548007 
C    -1.1957527    1.2080724    0.1039022 
C     0.0426245    0.6823621    0.2102300 
C    -0.2227992    3.1260322   -0.8885813 
C     1.0188185    2.5741692   -0.7679539 
C     1.1240142    1.3391808   -0.2125072 
N     0.3977229   -0.5737790    0.7708983 
C     2.2134600    0.5915894    0.0230098 
C     1.8236614   -0.5483579    0.6193565 
H    -0.2151288   -1.3156263    1.1803504 
C     3.6490662    0.9713394   -0.2603263 
C     4.2314908    1.8302420    0.8772684 
H     3.6971851    1.5241518   -1.2254506 
H     4.2616709    0.0521485   -0.3911320 
C     5.5413836    2.4801950    0.4567857 
N     4.3658631    1.0034744    2.0913833 
H     3.5367694    2.6784033    1.0856510 
H     5.1102472    0.2810746    1.9414265 
H     4.7160645    1.6066730    2.8744779 
H    -2.3127071    2.8926833   -0.5523171 
H    -2.0602009    0.6568887    0.4582772 
H    -0.3348642    4.1140585   -1.3293224 
H     1.8950299    3.1200462   -1.1068500 
H     2.4947332   -1.3295713    0.9687635 
O     5.5173665    3.6964676   -0.2095786 
O     6.7573243    1.8368145    0.6463706 
H     6.8724843    1.1364398   -0.0705285 
