27
Energy =
C    -1.2324309    2.1306619    1.0848759 
C    -1.2215802    1.0508994    0.2541392 
C    -0.0476202    0.6795825   -0.2984340 
C    -0.0756206    2.8102478    1.3448730 
C     1.0998741    2.4123186    0.7781008 
C     1.0894671    1.3351902   -0.0504680 
N     0.1744637   -0.4173113   -1.1712808 
C     2.0965395    0.7392290   -0.7170086 
C     1.5862558   -0.3084632   -1.3913973 
H    -0.5055592   -1.1204282   -1.5412428 
C     3.5733210    1.1029073   -0.6909917 
C     4.0807101    1.7374462   -2.0075597 
H     4.1519664    0.1733435   -0.5005337 
H     3.7983108    1.7826855    0.1572231 
C     3.5483732    3.1545896   -2.2481505 
N     3.7992004    0.8166232   -3.1273504 
H     5.1817836    1.8748299   -1.9048486 
H     3.8181100    1.3195696   -4.0464158 
H     4.5400841    0.0780672   -3.1641299 
H    -2.1658817    2.4557453    1.5375549 
H    -2.1308620    0.5007207    0.0365898 
H    -0.0934222    3.6784946    1.9992329 
H     2.0110071    2.9678340    0.9747189 
H     2.1624625   -0.9893578   -2.0126959 
O     2.6342821    3.7299029   -1.3772854 
O     4.0387850    3.9399420   -3.2914327 
H     4.7601806    3.4753629   -3.8191467 
