27
Energy =
C    -1.3091731    1.8531626    0.5677592 
C    -1.1146755    0.6148554    0.0329254 
C     0.1345549    0.2689375   -0.3429379 
C    -0.2565141    2.7128275    0.7147370 
C     0.9966897    2.3412804    0.3254513 
C     1.1684873    1.1024732   -0.2065438 
N     0.5437500   -0.9619549   -0.9219741 
C     2.2802049    0.5021992   -0.6672346 
C     1.9459585   -0.7272710   -1.0997235 
H    -0.0288562   -1.8039581   -1.1594819 
C     3.6800258    1.0793152   -0.7384673 
C     4.6531639    0.4235515    0.2652828 
H     3.6784681    2.1781826   -0.5801605 
H     4.0571631    0.9253310   -1.7726041 
C     4.3865461    0.8729418    1.7049302 
N     6.0248289    0.7400788   -0.1764196 
H     4.5119107   -0.6814152    0.2653413 
H     6.7101720    0.4656111    0.5699921 
H     6.2615920    0.1534170   -1.0100708 
H    -2.3041878    2.1563862    0.8830100 
H    -1.9386789   -0.0798464   -0.0881911 
H    -0.4170639    3.6958234    1.1504379 
H     1.8297444    3.0229459    0.4608396 
H     2.6371670   -1.4451353   -1.5344117 
O     5.4368521    1.1103806    2.5863741 
O     3.0893818    0.9475917    2.1934496 
H     3.1257603    1.2167079    3.1679723 
