27
Energy =
C    -1.3788103    1.8944697    0.1735934 
C    -1.0508469    0.5797296    0.3250173 
C     0.2502476    0.2313898    0.2409724 
C    -0.4044284    2.8245357   -0.0634583 
C     0.9034749    2.4462670   -0.1467798 
C     1.2065862    1.1330138    0.0150448 
N     0.7981827   -1.0749183    0.3437197 
C     2.3954080    0.5119985   -0.0349152 
C     2.1920845   -0.8049392    0.1408599 
H     0.3161211   -1.9841348    0.5270878 
C     3.7441479    1.1485281   -0.3040735 
C     4.0881015    1.3307044   -1.8227005 
H     4.5128459    0.5550424    0.2332568 
H     3.7723546    2.1410890    0.1958374 
C     2.9615709    0.9530877   -2.7783881 
N     5.3416699    0.6353056   -2.1959512 
H     4.2213343    2.4251173   -1.9933285 
H     6.0291259    1.3208297   -2.5885205 
H     5.8137642    0.1490905   -1.4007759 
H    -2.4192574    2.2027595    0.2334758 
H    -1.8112358   -0.1726985    0.5029195 
H    -0.6736144    3.8694457   -0.1947801 
H     1.6741344    3.1822461   -0.3541194 
H     2.9679957   -1.5658949    0.0933912 
O     2.7125897   -0.3773775   -3.1073008 
O     2.1370785    1.9467064   -3.2984855 
H     1.4302697    1.5104419   -3.8754813 
