27
Energy =
C    -0.9433353    2.9681670   -0.8000810 
C    -1.0515929    1.6141337   -0.6864651 
C     0.0657601    0.9026115   -0.4290258 
C     0.2728450    3.5763265   -0.6567686 
C     1.3877609    2.8344394   -0.3983213 
C     1.2560590    1.4864978   -0.2864492 
N     0.1709340   -0.5039998   -0.2838187 
C     2.1905530    0.5519656   -0.0425757 
C     1.5781635   -0.6506280   -0.0403712 
H    -0.5753302   -1.2350502   -0.3379797 
C     3.6720841    0.8450616    0.1510524 
C     4.5682429   -0.3303860    0.5928157 
H     3.7633493    1.6384743    0.9246621 
H     4.0719755    1.2655031   -0.7991914 
C     4.7653125   -1.3607692   -0.5152071 
N     4.0780063   -0.8670839    1.8824640 
H     5.5912512    0.0913840    0.7372146 
H     3.7201452   -1.8465668    1.7826907 
H     4.8778161   -0.9357225    2.5549955 
H    -1.8273184    3.5660090   -1.0072043 
H    -2.0081338    1.1153927   -0.8003790 
H     0.3517500    4.6567389   -0.7506331 
H     2.3528964    3.3203439   -0.2880278 
H     2.0620789   -1.6085531    0.1166298 
O     4.2045939   -2.6322671   -0.4473317 
O     5.5048438   -1.0159392   -1.6369378 
H     5.5330737   -1.8104360   -2.2636601 
