27
Energy =
C    -0.9563353    3.6467595    0.1242322 
C    -1.1134990    2.4575477    0.7714862 
C    -0.1374828    1.5326988    0.6568585 
C     0.1673432    3.8841889   -0.6176571 
C     1.1402474    2.9318036   -0.7184080 
C     0.9622653    1.7543984   -0.0660591 
N    -0.1035429    0.2441142    1.2528807 
C     1.7559877    0.6717126   -0.0014609 
C     1.1584979   -0.2439313    0.7812466 
H    -0.8117150   -0.2221307    1.8653816 
C     3.1140700    0.4861040   -0.6433241 
C     4.2595646    0.8951141    0.2993675 
H     3.1929817    1.0537462   -1.5957561 
H     3.2408325   -0.5857416   -0.9139012 
C     4.3066193    2.3975337    0.5301074 
N     5.5205661    0.3845112   -0.2638580 
H     4.0940458    0.4323199    1.3015974 
H     5.7544542    0.9351445   -1.1261311 
H     6.2950047    0.5788362    0.4156088 
H    -1.7257723    4.4110261    0.2038458 
H    -1.9964136    2.2549631    1.3684250 
H     0.2882381    4.8400368   -1.1234263 
H     2.0387925    3.1238935   -1.2980431 
H     1.5746200   -1.2166727    1.0351189 
O     4.3548732    2.9018618    1.8226933 
O     4.3195364    3.2818377   -0.5444582 
H     4.4571081    4.2195870   -0.1854322 
