27
Energy =
C    -1.0950147    2.1278178    1.0747679 
C    -1.1546624    0.9742181    0.3506576 
C    -0.0407714    0.5631910   -0.2907141 
C     0.0717228    2.8377710    1.1451562 
C     1.1855260    2.3999191    0.4905902 
C     1.1007842    1.2517108   -0.2300097 
N     0.1135404   -0.6109471   -1.0755067 
C     2.0387714    0.6108162   -0.9451356 
C     1.4947167   -0.5091692   -1.4512005 
H    -0.5895316   -1.3470556   -1.3154590 
C     3.4907074    1.0072101   -1.1177098 
C     4.4772516    0.3301742   -0.1120257 
H     3.5877046    2.1109906   -1.0429260 
H     3.7699750    0.7792568   -2.1713303 
C     5.6613774   -0.3346612   -0.8308256 
N     3.7815976   -0.6272038    0.7694867 
H     4.9056331    1.1415659    0.5197204 
H     4.4785892   -1.1289263    1.3701179 
H     3.1622192   -0.1009113    1.4305812 
H    -1.9777694    2.4820225    1.6011977 
H    -2.0698362    0.3951811    0.2898163 
H     0.1125029    3.7546141    1.7283212 
H     2.1121893    2.9611589    0.5559114 
H     2.0420342   -1.2577046   -2.0232590 
O     5.4642894   -1.0070707   -2.0331043 
O     6.9452686   -0.3168807   -0.2827638 
H     6.9644943    0.1255927    0.6231946 
