27
Energy =
C    -1.4391240    2.2623813   -0.5086496 
C    -1.2273528    0.9382744   -0.7521799 
C     0.0319762    0.4632027   -0.6552695 
C    -0.3933029    3.0773435   -0.1753065 
C     0.8710985    2.5739522   -0.0833785 
C     1.0600910    1.2507578   -0.3314639 
N     0.4615141   -0.8732708   -0.8691256 
C     2.1863591    0.5160704   -0.3117015 
C     1.8684263   -0.7520659   -0.6271613 
H    -0.0988701   -1.7161141   -1.1326456 
C     3.5932191    0.9903683   -0.0118939 
C     4.4647961    1.0560031   -1.2907351 
H     4.0476232    0.2754333    0.7107532 
H     3.5873826    1.9816586    0.4898088 
C     5.9361968    1.2417997   -0.9457856 
N     4.0056867    2.1241670   -2.2039947 
H     4.4109651    0.0681157   -1.8077231 
H     3.7567526    1.7097235   -3.1329318 
H     3.1520281    2.6183533   -1.8586496 
H    -2.4439875    2.6714159   -0.5797340 
H    -2.0459209    0.2778520   -1.0177134 
H    -0.5708935    4.1328761    0.0177703 
H     1.6946968    3.2286294    0.1816607 
H     2.5762051   -1.5757710   -0.6935178 
O     6.8496626    0.2433529   -1.2603621 
O     6.3786853    2.3638638   -0.2526576 
H     6.1706738    2.2522694    0.7268926 
