27
Energy =
C    -1.0887173    1.3610943   -1.3234521 
C    -1.0475530    0.5917159   -0.1987236 
C     0.1171816    0.5101253    0.4782048 
C     0.0297938    2.0255287   -1.7448917 
C     1.1953568    1.9265859   -1.0433315 
C     1.2123931    1.1571472    0.0755550 
N     0.3727953   -0.2370716    1.6590983 
C     2.2157700    0.8971939    0.9294771 
C     1.7568828    0.0636359    1.8797265 
H    -0.2752775   -0.8417971    2.2139511 
C     3.6412091    1.3972893    0.8439140 
C     4.5302659    0.4449477    0.0234424 
H     4.0484266    1.5015071    1.8746972 
H     3.6696453    2.4134755    0.3924515 
C     6.0171636    0.7878869    0.1757700 
N     4.0780886    0.4807552   -1.3827930 
H     4.4094082   -0.5831959    0.4389103 
H     4.8480285    0.7703701   -2.0343817 
H     3.7710755   -0.4758077   -1.6787439 
H    -2.0134801    1.4439840   -1.8888567 
H    -1.9243296    0.0552886    0.1475469 
H    -0.0082368    2.6333291   -2.6456946 
H     2.0850902    2.4467670   -1.3854999 
H     2.3500545   -0.3366200    2.6990245 
O     6.4055425    2.0488060    0.6151809 
O     7.0049458   -0.1376474   -0.1585136 
H     6.6088333   -0.9968615   -0.5105021 
