27
Energy =
C    -1.4749050    2.7222648    0.1545983 
C    -1.3747564    1.3655817    0.2449639 
C    -0.1647252    0.7995744    0.0531972 
C    -0.3685487    3.4780439   -0.1198550 
C     0.8437153    2.8820464   -0.3082070 
C     0.9183908    1.5296565   -0.2182109 
N     0.1563737   -0.5828831    0.1185032 
C     1.9766534    0.7148406   -0.3512988 
C     1.5658582   -0.5489345   -0.1437589 
H    -0.4685386   -1.4015583    0.3000545 
C     3.4113302    1.1229446   -0.6221625 
C     4.2429650    1.4629729    0.6486689 
H     3.4161402    1.9803840   -1.3304159 
H     3.9168897    0.2997895   -1.1730327 
C     3.4986450    1.2819832    1.9690659 
N     4.8142172    2.8148046    0.4991213 
H     5.0829054    0.7320388    0.7080843 
H     4.0442050    3.5201727    0.5968848 
H     5.4647971    2.9997103    1.3001733 
H    -2.4363688    3.2052910    0.3092619 
H    -2.2403877    0.7520431    0.4704950 
H    -0.4529976    4.5601453   -0.1800269 
H     1.7225799    3.4849221   -0.5130514 
H     2.2146274   -1.4219480   -0.1357638 
O     2.7498578    2.3171306    2.5183205 
O     3.5250917    0.0524857    2.6120197 
H     2.9516825    0.1160956    3.4436643 
