27
Energy =
C    -0.9362944    2.4795052   -1.9270817 
C    -1.0976072    1.3624382   -1.1629343 
C    -0.0151377    0.8520478   -0.5388139 
C     0.2962819    3.0577250   -2.0511056 
C     1.3757696    2.5222822   -1.4118746 
C     1.1924852    1.4102163   -0.6527787 
N     0.0304575   -0.3006878    0.2901085 
C     2.0778834    0.6935724    0.0611869 
C     1.4211966   -0.3303253    0.6379150 
H    -0.7373084   -0.9554346    0.5652422 
C     3.5616319    0.9673382    0.2244878 
C     3.8640340    1.9126129    1.4081255 
H     3.9675859    1.4053194   -0.7118715 
H     4.0994762    0.0041315    0.3717907 
C     3.4570979    1.3145538    2.7590376 
N     3.2396050    3.2213193    1.1352662 
H     4.9685504    2.0383001    1.4789140 
H     3.2842786    3.8194410    1.9960490 
H     3.8063649    3.7234719    0.4129797 
H    -1.7921034    2.9132790   -2.4383708 
H    -2.0689372    0.8917840   -1.0547094 
H     0.4158433    3.9512406   -2.6597384 
H     2.3523642    2.9852484   -1.5070803 
H     1.8754978   -1.0797355    1.2821636 
O     3.5717520   -0.0555463    2.9829548 
O     3.0977158    2.1341840    3.8244782 
H     2.8925373    1.5572387    4.6286802 
