27
Energy =
C    -1.4524018    2.4892666   -0.3410239 
C    -1.3666207    1.1409409   -0.1665136 
C    -0.1410271    0.5857205   -0.0622649 
C    -0.3176517    3.2474336   -0.4075999 
C     0.9090479    2.6616145   -0.2998084 
C     0.9737592    1.3132526   -0.1251087 
N     0.1601681   -0.7841819    0.1188837 
C     2.0556161    0.5161254    0.0050697 
C     1.5962526   -0.7530396    0.1518540 
H    -0.4917219   -1.5980766    0.2076385 
C     3.4916611    1.0666018   -0.0252469 
C     4.7791959    0.1653892    0.0986629 
H     3.5177135    1.8724396    0.7358218 
H     3.5846686    1.6080007   -0.9932048 
C     4.5581914   -1.3257407    0.1427514 
N     5.6509887    0.5823903    1.2224717 
H     5.3485899    0.3020120   -0.8521807 
H     6.6060535    0.8176248    0.8628434 
H     5.3084875    1.4194839    1.7449412 
H    -2.4270356    2.9628461   -0.4284315 
H    -2.2573195    0.5240385   -0.1126490 
H    -0.3933604    4.3230305   -0.5480996 
H     1.8056346    3.2715474   -0.3555955 
H     2.1778562   -1.6593047    0.2715144 
O     4.3759414   -2.0347092   -1.0343439 
O     4.3700454   -1.9886399    1.3462602 
H     5.2751916   -2.2933888    1.6723414 
