27
Energy =
C    -1.3434344    2.6397132   -0.0442595 
C    -1.2616439    1.2863097   -0.1861650 
C    -0.0381705    0.7168400   -0.1927100 
C    -0.2066940    3.3888366    0.0849524 
C     1.0184966    2.7892412    0.0738514 
C     1.0755687    1.4391064   -0.0659852 
N     0.2656574   -0.6615918   -0.3358111 
C     2.1441991    0.6265298   -0.1090713 
C     1.6983293   -0.6357841   -0.2777690 
H    -0.3809408   -1.4752737   -0.4512895 
C     3.5910345    1.0844270   -0.0187953 
C     4.6293312   -0.0496836    0.1133143 
H     3.6850474    1.7553636    0.8639123 
H     3.8335321    1.6905938   -0.9200001 
C     5.9945319    0.5118907    0.4813564 
N     4.6740669   -0.8195402   -1.1428320 
H     4.3315305   -0.7183698    0.9544855 
H     5.1145671   -0.2320649   -1.8932143 
H     5.3100501   -1.6418866   -1.0090338 
H    -2.3162986    3.1247734   -0.0354566 
H    -2.1529651    0.6773909   -0.2926451 
H    -0.2799454    4.4680994    0.1960185 
H     1.9198913    3.3868951    0.1735802 
H     2.3216951   -1.5214891   -0.3718069 
O     6.7122659   -0.0288851    1.5405735 
O     6.5399009    1.5634175   -0.2458696 
H     7.4521796    1.7826496    0.1345788 
