27
Energy =
C    -1.2279656    2.2523776   -0.9245118 
C    -1.1378098    1.0227556   -0.3422216 
C     0.0884597    0.5463755   -0.0410024 
C    -0.0967471    2.9732227   -1.1917384 
C     1.1314617    2.4694301   -0.8779753 
C     1.1962296    1.2437362   -0.2968280 
N     0.4017741   -0.7004291    0.5635859 
C     2.2646584    0.5364697    0.1039036 
C     1.8321959   -0.6267836    0.6215638 
H    -0.2403232   -1.4625931    0.8806738 
C     3.7139038    0.9617033    0.0201865 
C     4.0750292    2.0098854    1.1020202 
H     3.9044146    1.3786737   -0.9940995 
H     4.3870993    0.0799299    0.1212069 
C     5.4204014    2.6475623    0.8051774 
N     4.0757349    1.4148068    2.4548466 
H     3.3365372    2.8443434    1.0565297 
H     3.4112966    1.9427437    3.0678656 
H     3.7594924    0.4183818    2.4572292 
H    -2.2031955    2.6607190   -1.1777498 
H    -2.0248370    0.4377379   -0.1242553 
H    -0.1766796    3.9529453   -1.6571625 
H     2.0289946    3.0421971   -1.0931474 
H     2.4709569   -1.4074072    1.0289390 
O     5.5360402    4.0319292    0.7401930 
O     6.5421775    1.8652197    0.5572571 
H     7.3324079    2.4789724    0.4124797 
