27
Energy =
C    -1.2723046    3.0270746    0.6114409 
C    -1.2432635    2.1639481   -0.4426317 
C    -0.0898010    1.5154755   -0.7072729 
C    -0.1549150    3.2194658    1.3749265 
C     0.9988483    2.5492429    1.0895275 
C     1.0080321    1.6978085    0.0308848 
N     0.1442455    0.5780686   -1.7481787 
C     1.9972308    0.9261295   -0.4559023 
C     1.5181328    0.2457174   -1.5134218 
H    -0.5120854    0.2239467   -2.4826205 
C     3.4202324    0.8131482    0.0577117 
C     4.3724719    1.8982224   -0.4991270 
H     3.8275372   -0.1870998   -0.2073521 
H     3.4221853    0.8554698    1.1693174 
C     3.9655164    3.3029697   -0.0520286 
N     4.5521010    1.7605771   -1.9575252 
H     5.3668703    1.7360018   -0.0224926 
H     3.6336442    1.7231816   -2.4558512 
H     5.0529764    0.8641260   -2.1643002 
H    -2.1870712    3.5680161    0.8430072 
H    -2.1212454    2.0005127   -1.0590454 
H    -0.1833327    3.9165189    2.2099236 
H     1.8834247    2.7108776    1.6975279 
H     2.0925445   -0.4528010   -2.1184649 
O     4.2112139    3.6679573    1.2668133 
O     3.2231680    4.1758510   -0.8468524 
H     3.1729951    3.8580542   -1.8018854 
