27
Energy =
C    -0.7581669    3.9647420   -0.6644403 
C    -1.1552051    2.7344521   -0.2336181 
C    -0.2171684    1.7769126   -0.0786389 
C     0.5599311    4.2085283   -0.9321400 
C     1.4898821    3.2237081   -0.7693665 
C     1.0734581    2.0051642   -0.3334933 
N    -0.4246107    0.4386039    0.3450550 
C     1.7748511    0.8811826   -0.1001203 
C     0.9138891   -0.0726834    0.3014855 
H    -1.3115612   -0.0517568    0.6033813 
C     3.2695619    0.6743439   -0.2767717 
C     4.0669886    0.6748101    1.0530517 
H     3.6957859    1.4405410   -0.9565027 
H     3.4291588   -0.3020891   -0.7877153 
C     3.6618617   -0.4738916    1.9692060 
N     3.9958025    1.9786419    1.7463586 
H     5.1286121    0.4676391    0.7835790 
H     4.9548087    2.3883683    1.8378459 
H     3.4118198    2.6785743    1.2382883 
H    -1.4938372    4.7545780   -0.7957905 
H    -2.1976219    2.5236103   -0.0186713 
H     0.8674840    5.1933214   -1.2762637 
H     2.5340865    3.4241166   -0.9849005 
H     1.1894584   -1.0913850    0.5680761 
O     2.6009929   -0.3498218    2.8585057 
O     4.3021397   -1.7029115    1.8603225 
H     5.1692811   -1.6627563    2.3755740 
