27
Energy =
C    -0.8876743    2.5176347   -1.6231487 
C    -0.8374719    1.2076736   -1.2497576 
C     0.3015568    0.7439538   -0.6935772 
C     0.1956011    3.3300061   -1.4336043 
C     1.3360128    2.8368386   -0.8697595 
C     1.3638104    1.5297566   -0.5036893 
N     0.5580407   -0.5784949   -0.2435060 
C     2.3499209    0.8092632    0.0570664 
C     1.9035435   -0.4481326    0.2332479 
H    -0.0595868   -1.4222977   -0.2693601 
C     3.7288616    1.2953319    0.4626281 
C     3.7423620    1.9571222    1.8540546 
H     4.1095752    2.0152541   -0.2928636 
H     4.4370133    0.4373784    0.4593981 
C     3.2020327    1.0250248    2.9383004 
N     3.0268910    3.2455434    1.7741285 
H     4.8045108    2.1419180    2.1411993 
H     2.6693781    3.5174029    2.7232367 
H     3.7008339    3.9950150    1.4918292 
H    -1.7946346    2.9181317   -2.0696752 
H    -1.6889176    0.5501419   -1.3906718 
H     0.1456395    4.3754259   -1.7288539 
H     2.1928916    3.4831503   -0.7129047 
H     2.4696647   -1.2533193    0.6949956 
O     1.8633138    1.0506080    3.3079654 
O     4.0449787    0.0943364    3.5319120 
H     4.1522273   -0.6935126    2.9118394 
