27
Energy =
C    -1.4777646    2.3913451   -0.5566180 
C    -1.3113806    1.1365862   -0.0642199 
C    -0.0901696    0.6916572    0.2946824 
C    -0.4285413    3.2451367   -0.6771287 
C     0.9385030    2.9048912   -0.1380881 
C     1.0009669    1.4408173    0.1891336 
N     0.2613142   -0.6766087    0.4665874 
C     2.0873487    0.6497374    0.1173740 
C     1.6827925   -0.6149598    0.3167333 
H    -0.3605888   -1.4950850    0.6278730 
C     3.5478009    1.0272252   -0.1908142 
C     3.9476891    2.3360355   -0.9845824 
H     3.9706183    0.1760498   -0.7589466 
H     4.0523255    1.0285004    0.7989324 
C     4.6387878    3.3672524   -0.0723709 
N     2.7846279    2.8442793   -1.7697175 
H     4.7934565    2.0956643   -1.6797919 
H     1.8951808    2.8635435   -0.9761954 
H     2.8840187    3.8647220   -1.9724155 
H    -2.4648369    2.7214671   -0.8553542 
H    -2.1519535    0.4582542   -0.0235378 
H    -0.5732636    4.2762893   -0.9543559 
H     0.9159278    3.5043954    0.8411696 
H     2.3334902   -1.4814207    0.2958399 
O     4.3418261    4.7283600   -0.1302222 
O     5.7255362    2.9489118    0.6969805 
H     6.0236061    3.7256599    1.2678544 
