27
Energy =
C    -1.2300425    2.8599639    0.5911735 
C    -1.1804921    1.5015608    0.6989737 
C    -0.0253925    0.8772973    0.3870548 
C    -0.1295401    3.5594513    0.1781917 
C     1.0270031    2.9052549   -0.1301553 
C     1.0516361    1.5523048   -0.0170245 
N     0.2399732   -0.5174831    0.4399491 
C     2.0509819    0.6879677   -0.2505442 
C     1.6091809   -0.5535241    0.0160733 
H    -0.3933723   -1.3025826    0.7163893 
C     3.4568378    1.0298251   -0.6871522 
C     4.3218431    1.5253527    0.4885758 
H     3.4117974    1.8017627   -1.4876148 
H     3.9454988    0.1386178   -1.1423870 
C     5.6020460    2.1629694   -0.0270590 
N     4.6096513    0.3943680    1.3890154 
H     3.7821704    2.3299097    1.0428288 
H     5.2675913    0.7167156    2.1399210 
H     3.7308116    0.1275023    1.8927079 
H    -2.1478339    3.3888910    0.8359719 
H    -2.0432296    0.9320142    1.0275512 
H    -0.1763077    4.6429941    0.0961619 
H     1.9008145    3.4626682   -0.4558344 
H     2.2080494   -1.4592375   -0.0569789 
O     6.0762835    3.3310525    0.5525646 
O     6.3319816    1.5683288   -1.0472420 
H     6.9240262    0.8609433   -0.6366152 
