27
Energy =
C    -1.3665661    2.9459900    0.0378075 
C    -1.3459045    1.6631669    0.4994055 
C    -0.1958412    0.9648131    0.3954307 
C    -0.2420695    3.5001276   -0.5091440 
C     0.9094168    2.7747628   -0.5999604 
C     0.9038922    1.4970466   -0.1401964 
N     0.0440228   -0.3662126    0.8308958 
C     1.8937866    0.5914926   -0.1024223 
C     1.4245199   -0.5269913    0.4777309 
H    -0.6090975   -1.0434843    1.2874956 
C     3.3205735    0.7853665   -0.5644675 
C     4.3410040    1.3893989    0.4683057 
H     3.3118385    1.4240246   -1.4743146 
H     3.6826229   -0.1995516   -0.9410308 
C     5.5738684    0.5087682    0.6124116 
N     3.7937768    1.7043864    1.8096476 
H     4.7254812    2.3332671    0.0139752 
H     3.9514100    2.7167285    2.0254599 
H     2.7746741    1.5340179    1.9387445 
H    -2.2796662    3.5315669    0.1083915 
H    -2.2267925    1.2109761    0.9421496 
H    -0.2652914    4.5253004   -0.8710536 
H     1.8036953    3.2195005   -1.0262216 
H     2.0147365   -1.4195089    0.6796751 
O     5.4500333   -0.8691599    0.7563470 
O     6.8402472    1.0785558    0.6362672 
H     7.0206873    1.4128572    1.5720879 
