27
Energy =
C    -1.5092747    1.8099024   -0.4890619 
C    -1.0488563    0.5342266   -0.3516052 
C     0.2850695    0.3382858   -0.2943615 
C    -0.6309221    2.8551740   -0.5643559 
C     0.7131756    2.6316510   -0.5028967 
C     1.1498755    1.3519810   -0.3667333 
N     0.9640160   -0.8997596   -0.1458237 
C     2.4015109    0.8706633   -0.2757341 
C     2.3302179   -0.4660455   -0.1440390 
H     0.5758606   -1.8672219   -0.0620102 
C     3.6924401    1.6648304   -0.2914803 
C     4.2609907    1.9571700    1.1197444 
H     3.5531962    2.6184288   -0.8438004 
H     4.4507864    1.0931717   -0.8742827 
C     4.6353054    0.6884083    1.8940629 
N     3.3764573    2.8653380    1.8745577 
H     5.2370807    2.4778965    0.9769566 
H     3.3663366    3.8019667    1.4063629 
H     2.3884757    2.5219889    1.8733920 
H    -2.5792005    1.9962939   -0.5384370 
H    -1.7316489   -0.3062511   -0.2884799 
H    -1.0062917    3.8700316   -0.6736912 
H     1.4061062    3.4648395   -0.5602366 
H     3.1862384   -1.1292261   -0.0286102 
O     5.9146374    0.1677973    1.7404542 
O     3.7254112   -0.0164691    2.6831519 
H     2.8257036    0.4343883    2.7044324 
