27
Energy =
C    -0.9513764    1.9537690    1.2731591 
C    -1.0159509    1.0081016    0.2934985 
C     0.1183464    0.6913073   -0.3656492 
C     0.2393923    2.5557766    1.5720337 
C     1.3721736    2.2189572    0.8912407 
C     1.2838975    1.2766033   -0.0832281 
N     0.2672205   -0.2654735   -1.4053842 
C     2.2354121    0.7708998   -0.8856690 
C     1.6697475   -0.1559161   -1.6792908 
H    -0.4553158   -0.8745286   -1.8527525 
C     3.7046334    1.1357346   -0.9083001 
C     4.5645668    0.1683363   -0.0720727 
H     3.8581881    2.1785960   -0.5565445 
H     4.0526209    1.1174005   -1.9640284 
C     4.2381203    0.2770797    1.4190112 
N     5.9803558    0.4640636   -0.3511538 
H     4.3420292   -0.8863206   -0.3614191 
H     6.5653672   -0.1295369    0.2780198 
H     6.2126354    0.1576810   -1.3319258 
H    -1.8481191    2.2237118    1.8248584 
H    -1.9506982    0.5153834    0.0493742 
H     0.2867414    3.2992621    2.3638419 
H     2.3183178    2.6860105    1.1458513 
H     2.1987205   -0.7497889   -2.4207385 
O     3.1165033   -0.3574358    1.9244393 
O     5.0091477    1.0374902    2.2861843 
H     5.8867019    1.1873904    1.8082353 
