27
Energy =
C    -1.4440120    2.7409465    0.1852487 
C    -1.4403290    1.5689455   -0.5109812 
C    -0.2542508    0.9692529   -0.7474818 
C    -0.2691117    3.2825232    0.6279840 
C     0.9161519    2.6555763    0.3765492 
C     0.8966711    1.4897914   -0.3208969 
N    -0.0322418   -0.2473736   -1.4406432 
C     1.9170171    0.6942155   -0.6896146 
C     1.3939812   -0.3602375   -1.3526020 
H    -0.7197905   -0.8904164   -1.8958295 
C     3.3834796    0.9605650   -0.3570559 
C     4.4695920    0.0529621   -0.9998315 
H     3.4808368    0.8749494    0.7479705 
H     3.6196781    2.0174539   -0.6151765 
C     4.8380151    0.3772526   -2.4546327 
N     4.1519483   -1.3697618   -0.7927043 
H     5.4202885    0.2796105   -0.4576476 
H     4.9456854   -1.9572560   -1.1473332 
H     4.0716849   -1.5663022    0.2330463 
H    -2.3850559    3.2462815    0.3893169 
H    -2.3632146    1.1244511   -0.8682342 
H    -0.2794376    4.2177535    1.1830588 
H     1.8479353    3.0864441    0.7298424 
H     1.9517217   -1.1789236   -1.7972464 
O     6.1662013    0.2330621   -2.8359816 
O     3.9264589    0.8062977   -3.4181403 
H     2.9878446    0.8368100   -3.0666124 
