27
Energy =
C    -1.6042314    2.3339649   -0.9185346 
C    -1.3084690    1.0097412   -1.0487936 
C    -0.1151819    0.5731806   -0.5983743 
C    -0.7045809    3.1914970   -0.3467265 
C     0.5105876    2.7407134    0.0917410 
C     0.7696619    1.4007298   -0.0462830 
N     0.4119097   -0.7437853   -0.6900726 
C     1.8959093    0.7278190    0.2229392 
C     1.7262417   -0.5526593   -0.1470259 
H    -0.0356654   -1.6136427   -1.0600361 
C     3.1855561    1.3357608    0.7210094 
C     3.8247238    2.2800753   -0.3336237 
H     3.9087078    0.5327052    0.9873886 
H     2.9764010    1.9011711    1.6568045 
C     5.0511696    2.9615185    0.2343856 
N     2.8555620    3.2837880   -0.8210652 
H     4.1925949    1.6682382   -1.1892187 
H     2.4310860    2.9549371   -1.7228447 
H     2.0073742    3.4503156    0.0110211 
H    -2.5625677    2.7094515   -1.2693228 
H    -2.0076075    0.3202741   -1.5098781 
H    -0.9612163    4.2427516   -0.2345516 
H     1.2559791    3.5754920    0.6966092 
H     2.4902944   -1.3252061   -0.0961705 
O     4.9500271    3.8128726    1.3320276 
O     6.3039816    2.7000589   -0.3093266 
H     6.9963364    3.2425690    0.1906400 
