27
 energy: -5.221391702603 gnorm: 0.000619064519 xtb: 6.6.0 (2ccbbd7)
C           -1.46189737698236        2.51653356880323       -0.47962297036350
C           -1.30364255130980        1.21345470998599       -0.09448417958053
C           -0.00480984946492        0.72615592612102        0.09906531017600
C           -0.35365162121275        3.35596828360131       -0.67874477447411
C            0.92258938612573        2.89950744340641       -0.49613752298423
C            1.11035744985606        1.56340472929188       -0.10151198455336
N            0.46987989813246       -0.51282578630912        0.49128469169308
C            2.27588543380177        0.78801042104245        0.17532230487303
C            1.83938679069268       -0.46141574782319        0.54257066404292
H           -0.11666394791561       -1.31621361516028        0.72521140729491
C            3.68810829773739        1.27568768323749        0.11923667400734
C            4.73492349545740        0.16555499894433       -0.01053316167600
H            3.91021789952042        1.84987633006724        1.02407219840561
H            3.79537227396271        1.97292005364402       -0.71733243094391
C            4.81112786418979       -0.64573215244323        1.26366299171164
N            6.04983191061550        0.70830561716060       -0.32769747257672
H            4.42955563139862       -0.51885184969238       -0.81838199599914
H            6.75604463724599       -0.01491147828435       -0.27402316554555
H            6.07272815106479        1.11520251774423       -1.25513235969817
H           -2.45392477223516        2.90854249039068       -0.63178467025917
H           -2.14624618660093        0.56435494637682        0.06291620774661
H           -0.51433502169212        4.37801212044951       -0.97937574894139
H            1.77374479563546        3.54017694054633       -0.64310130033856
H            2.47483269914589       -1.28169759193737        0.83296019024314
O            5.19906244857473       -0.12879930848747        2.28628053911815
O            4.41347439481673       -1.93574719049559        1.18776992949248
H            4.53960068864271       -2.32293950852835        2.07592206946610
