27
Energy =
C    -0.9587423    2.8534206    0.8530559 
C    -0.9425695    1.5026182    1.0363532 
C     0.1025301    0.8022925    0.5481579 
C     0.0640444    3.4712933    0.1881085 
C     1.1104285    2.7433649   -0.2972239 
C     1.1076335    1.4002025   -0.0985854 
N     0.3015187   -0.6043430    0.6275202 
C     1.9927264    0.4693830   -0.4767643 
C     1.5724857   -0.7452344   -0.0405754 
H    -0.3163452   -1.3515432    1.0159364 
C     3.2672359    0.6194056   -1.2842212 
C     4.4764718   -0.0410852   -0.5623585 
H     3.4880143    1.6868223   -1.4903718 
H     3.1136263    0.1234496   -2.2669480 
C     4.1516998   -1.4187241    0.0349298 
N     4.9636300    0.8857549    0.4733389 
H     5.2846846   -0.2217922   -1.3075696 
H     5.7245196    0.4160258    1.0210211 
H     5.4064692    1.7140461    0.0123760 
H    -1.7880961    3.4411613    1.2378689 
H    -1.7461031    0.9971216    1.5609869 
H     0.0437744    4.5490015    0.0467775 
H     1.9202630    3.2386783   -0.8225376 
H     2.1031396   -1.8127860   -0.5068437 
O     2.8251597   -1.7558688    0.3949156 
O     5.1669594   -2.3160774    0.3168806 
H     4.7630960   -3.1123067    0.7928866 
