27
Energy =
C    -1.2526059    2.8766091   -0.3263414 
C    -1.2217326    1.5206345   -0.4609905 
C    -0.0202885    0.9056662   -0.4678302 
C    -0.0885792    3.5824628   -0.1994268 
C     1.1131214    2.9367296   -0.2096466 
C     1.1212305    1.5870521   -0.3479226 
N     0.2277769   -0.4875484   -0.5865598 
C     2.1537101    0.7271954   -0.3815155 
C     1.6588216   -0.5170818   -0.5156872 
H    -0.4502752   -1.2746401   -0.7062709 
C     3.6338411    1.0538844   -0.2747473 
C     4.1159573    1.4502490    1.1601789 
H     3.8831869    1.8269600   -1.0321189 
H     4.2117424    0.1597740   -0.5997840 
C     3.1355566    1.0722268    2.2795767 
N     4.4955884    2.8790773    1.2377571 
H     5.0278481    0.8451516    1.3740582 
H     5.5278993    2.9699544    1.3905472 
H     4.2730953    3.4236178    0.3754627 
H    -2.2068625    3.3972776   -0.3104791 
H    -2.1360082    0.9443985   -0.5543351 
H    -0.1209369    4.6626175   -0.0783899 
H     2.0326153    3.4951720   -0.0903442 
H     2.2547498   -1.4256650   -0.5528489 
O     2.2235992    2.0064058    2.7599703 
O     3.0877974   -0.2281758    2.7883680 
H     3.7393652   -0.8398735    2.3218006 
