15
Energy =
C    -6.8936043    2.9979510    0.0896263 
C    -5.5542391    2.2769114    0.0421609 
H    -6.9093872    3.7354059    0.9185056 
H    -7.6994600    2.2518682    0.2499707 
H    -7.0978152    3.5151277   -0.8687767 
C    -4.3450294    3.2195660   -0.0647594 
O    -5.5551767    1.3486667   -1.0259216 
H    -5.4477890    1.6932586    0.9937140 
C    -4.3751344    4.1948414   -1.2578134 
H    -3.4347028    2.5811866   -0.1403234 
H    -4.2600042    3.8018947    0.8797613 
H    -4.4404497    3.6468285   -2.2214886 
H    -3.4397451    4.7953229   -1.2750568 
H    -5.2271702    4.9027975   -1.1772948 
H    -5.7659853    1.7739229   -1.9221516 
