15
Energy =
C    -6.8740811    2.8444791    0.1206546 
C    -5.4747205    2.2612589    0.0580279 
H    -7.6022860    2.0196307    0.2590122 
H    -7.1165533    3.3395297   -0.8408605 
H    -6.9690609    3.5662779    0.9579107 
C    -4.3932322    3.3508677   -0.0208743 
O    -5.4124392    1.4312481   -1.0865528 
H    -5.3249974    1.6459447    0.9818531 
C    -4.4729001    4.2176393   -1.2901258 
H    -3.4008305    2.8489208    0.0071749 
H    -4.4552602    4.0003222    0.8807695 
H    -4.5532758    3.5728583   -2.1950977 
H    -3.5620006    4.8465574   -1.3823343 
H    -5.3565201    4.8890656   -1.2558861 
H    -4.5833776    0.8464063   -1.0903503 
