15
Energy =
C    -6.9214818    2.9834439    0.0497289 
C    -5.5806226    2.2673686    0.0315840 
H    -7.7338644    2.2481819    0.2207385 
H    -7.1011722    3.4672450   -0.9322025 
H    -6.9513509    3.7463677    0.8549370 
C    -4.3965774    3.2439852    0.0096695 
O    -5.5187314    1.4525249   -1.1239332 
H    -5.4714057    1.6344205    0.9495662 
C    -4.3737017    4.1661935   -1.2220655 
H    -3.4663284    2.6324232    0.0132448 
H    -4.3988940    3.8565564    0.9379084 
H    -4.4938490    3.5609782   -2.1502145 
H    -3.4073445    4.7106185   -1.2744401 
H    -5.1945902    4.9117123   -1.1728993 
H    -6.1372904    0.6502327   -1.0612233 
