15
Energy =
C    -6.8983583    2.8507755    0.0462063 
C    -5.5067522    2.2466349    0.0196700 
H    -7.6443293    2.0337673    0.1225371 
H    -7.0924871    3.3855801   -0.9049377 
H    -7.0175028    3.5421603    0.9057356 
C    -4.4062934    3.3199053    0.0268650 
O    -5.4091191    1.4588420   -1.1519373 
H    -5.4055525    1.5949417    0.9249901 
C    -4.4190922    4.2341145   -1.2112383 
H    -3.4238205    2.8004354    0.0772715 
H    -4.4962608    3.9365083    0.9490130 
H    -5.2927445    4.9189460   -1.1884113 
H    -4.4719024    3.6244626   -2.1422603 
H    -3.4953318    4.8501317   -1.2423454 
H    -4.5900955    0.8600711   -1.1432040 
