15
Energy =
C    -6.9279239    2.9356202   -0.0339729 
C    -5.5608100    2.2704786    0.0341268 
H    -7.0756287    3.4356363   -1.0116665 
H    -7.0402073    3.6788018    0.7822180 
H    -7.7129433    2.1580494    0.0704238 
C    -4.3863341    3.2616131    0.0132363 
O    -5.4381630    1.3341788   -1.0197643 
H    -5.5074546    1.6996301    0.9978237 
C    -4.3598274    4.2241559   -1.1901753 
H    -3.4476669    2.6609554    0.0185909 
H    -4.4015074    3.8552021    0.9544353 
H    -4.3245665    3.6651909   -2.1491213 
H    -3.4514744    4.8630013   -1.1395183 
H    -5.2439214    4.8964777   -1.1871940 
H    -5.5949405    1.7424554   -1.9347806 
