15
Energy =
C    -6.8589532    3.0610610    0.0910264 
C    -5.5579222    2.2804593    0.0154740 
H    -6.9611698    3.7056393   -0.8077625 
H    -6.8926113    3.6878297    1.0064479 
H    -7.7165831    2.3578872    0.1108322 
C    -4.3643707    3.2365609    0.0189035 
O    -5.5492538    1.5707031   -1.2088210 
H    -5.4618994    1.5773355    0.8836928 
C    -3.0302758    2.4774240    0.0917379 
H    -4.4363922    3.9341672    0.8826674 
H    -4.4010870    3.8388427   -0.9180433 
H    -2.9581717    1.7595285   -0.7584518 
H    -2.9503622    1.9095175    1.0434274 
H    -2.1799555    3.1892472    0.0274337 
H    -6.2187193    0.8078481   -1.2158970 
