15
Energy =
C    -6.9217656    2.9553827   -0.0007545 
C    -5.5598733    2.2780091    0.0492512 
H    -7.0847216    3.4428170   -0.9823805 
H    -7.0104101    3.7111617    0.8067279 
H    -7.7117719    2.1870187    0.1307152 
C    -4.3767857    3.2572501   -0.0099374 
O    -5.4675834    1.3255524   -0.9931823 
H    -5.4922673    1.7205044    1.0198558 
C    -4.3658109    4.2019436   -1.2276791 
H    -3.4439516    2.6475547   -0.0148610 
H    -4.3671063    3.8644484    0.9226192 
H    -5.2432835    4.8828094   -1.2166460 
H    -4.3555973    3.6287329   -2.1787849 
H    -3.4505982    4.8325556   -1.2050364 
H    -5.6399498    1.7219760   -1.9106127 
