15
Energy =
C    -6.9640476    2.9620312    0.0370895 
C    -5.5912003    2.3104291    0.0988635 
H    -7.1079227    3.6730757    0.8745836 
H    -7.7496839    2.1821067    0.1032653 
H    -7.0849872    3.4913695   -0.9310353 
C    -4.4676093    3.3363889   -0.0444281 
O    -5.4863324    1.4292571   -1.0016383 
H    -5.4468179    1.7512609    1.0602695 
C    -4.2851264    4.2217814    1.2043225 
H    -4.6511463    3.9516112   -0.9542978 
H    -3.5265178    2.7735359   -0.2416195 
H    -3.3927078    4.8733500    1.0785449 
H    -4.1327640    3.6003684    2.1141772 
H    -5.1657044    4.8814060    1.3601601 
H    -6.0491502    0.5925559   -0.8825359 
