15
Energy =
C    -6.9206279    2.8132622   -0.0162252 
C    -5.4921698    2.3001579    0.0956065 
H    -7.6118596    1.9462150   -0.0699969 
H    -7.0489660    3.4198789   -0.9357969 
H    -7.1891530    3.4239819    0.8691048 
C    -4.4514376    3.4179538   -0.0049200 
O    -5.2690411    1.3752668   -0.9519995 
H    -5.3660951    1.7607425    1.0716447 
C    -4.4123168    4.3129582    1.2474661 
H    -4.6432206    4.0296238   -0.9149204 
H    -3.4557615    2.9367814   -0.1482834 
H    -3.5900727    5.0565787    1.1571732 
H    -4.2302914    3.7091630    2.1640971 
H    -5.3645083    4.8739499    1.3682656 
H    -5.3941436    1.7790978   -1.8759739 
