15
Energy =
C    -6.8216816    2.6414603   -0.4740731 
C    -5.6226101    2.4283620    0.4370447 
H    -6.4821633    2.6974512   -1.5280662 
H    -7.3777571    3.5583404   -0.1926796 
H    -7.5057429    1.7734848   -0.3880046 
C    -4.5676826    3.5624902    0.4381876 
O    -4.9822460    1.2354821    0.0210261 
H    -5.9868043    2.3111865    1.4904516 
C    -4.8104589    4.7468279   -0.5191935 
H    -3.5772402    3.1076212    0.2010767 
H    -4.4739715    3.9608264    1.4720008 
H    -4.8370230    4.3986751   -1.5744181 
H    -3.9812998    5.4815499   -0.4271685 
H    -5.7576640    5.2722211   -0.2740588 
H    -5.3874976    0.4070608    0.4454480 
