15
Energy =
C    -6.8590588    3.0601829    0.0763851 
C    -5.5556855    2.2828167    0.0095902 
H    -6.9020390    3.6839458    0.9934807 
H    -7.7152039    2.3550446    0.0863358 
H    -6.9549070    3.7073805   -0.8212233 
C    -4.3645693    3.2418125    0.0246380 
O    -5.5356793    1.5758380   -1.2161751 
H    -5.4647362    1.5780454    0.8770724 
C    -3.0291781    2.4856964    0.1056772 
H    -4.4450772    3.9369994    0.8896364 
H    -4.3955376    3.8466196   -0.9109104 
H    -2.1800559    3.1996468    0.0495152 
H    -2.9489978    1.7701796   -0.7458185 
H    -2.9550197    1.9154966    1.0564568 
H    -6.2024450    0.8107412   -1.2299445 
