15
Energy =
C    -6.9269837    2.9719130    0.0271643 
C    -5.5833432    2.2611150    0.0119486 
H    -6.9698526    3.7186869    0.8467740 
H    -7.7386886    2.2305920    0.1731530 
H    -7.0961380    3.4744891   -0.9471872 
C    -4.4029517    3.2422945    0.0229548 
O    -5.5043289    1.4688234   -1.1580589 
H    -5.4827249    1.6110499    0.9189669 
C    -4.3695250    4.1888817   -1.1900259 
H    -3.4705428    2.6339612    0.0252151 
H    -4.4182568    3.8363024    0.9630753 
H    -3.4042131    4.7367581   -1.2216088 
H    -5.1930120    4.9311168   -1.1348288 
H    -4.4783660    3.6017927   -2.1311543 
H    -6.1220743    0.6644077   -1.1193161 
