15
Energy =
C    -6.8965952    2.7352739    0.0552815 
C    -5.4448631    2.2910616    0.0416392 
H    -7.5471285    1.8390256   -0.0083684 
H    -7.1046177    3.3653391   -0.8334875 
H    -7.1404587    3.2896365    0.9833404 
C    -4.4818970    3.4779834   -0.0291875 
O    -5.2739180    1.5149448   -1.1277694 
H    -5.2539965    1.6701061    0.9556974 
C    -4.4394111    4.3000808    1.2722211 
H    -4.7549157    4.1164269   -0.9009443 
H    -3.4627523    3.0838965   -0.2405035 
H    -3.6501751    5.0806224    1.2015701 
H    -4.2059589    3.6519816    2.1456284 
H    -5.4075863    4.8152957    1.4531626 
H    -4.4615043    0.9085006   -1.0747532 
