15
Energy =
C    -6.9949857    2.6782565   -0.4770994 
C    -5.5240187    2.2982292   -0.2736614 
H    -7.6451719    1.9986172    0.1121133 
H    -7.2911155    2.5650761   -1.5406484 
H    -7.2490296    3.6989540   -0.1866066 
C    -4.5040287    3.3531925    0.2536027 
O    -5.0434192    1.7840380   -1.5011398 
H    -5.5059843    1.4411674    0.4554906 
C    -4.9190210    4.8073576    0.6101336 
H    -3.6619888    3.4049084   -0.4758883 
H    -4.0154693    2.9143024    1.1533674 
H    -4.6699735    5.0210644    1.6744198 
H    -5.9697323    5.0897202    0.4786116 
H    -4.3277527    5.5267288   -0.0006541 
H    -5.0174098    2.4882099   -2.2338079 
