24
Energy =
C     0.1670146    2.4224492   -0.9673314 
C    -1.0477666    2.1080807   -0.4437549 
C    -1.2346469    0.8991240    0.1319989 
C     1.1865462    1.5285793   -0.9102935 
C     1.0008470    0.3114612   -0.3282888 
C    -0.2196203    0.0004746    0.1898533 
O    -2.1192935    3.0056361   -0.4836686 
H    -1.9042162    3.8844367   -0.9429858 
H    -0.3903449   -0.9679733    0.6529662 
H     2.1499676    1.7946034   -1.3398072 
H     0.3261838    3.3878433   -1.4359294 
H    -2.2093798    0.6608960    0.5434432 
C     2.1273859   -0.7001705   -0.2796790 
C     2.0138170   -1.7508911   -1.4139199 
H     2.1026950   -1.2122095    0.7080863 
H     3.1172910   -0.1914339   -0.3402546 
C     2.1844841   -1.1319215   -2.8077159 
O     3.0247876   -0.0392189   -2.9905282 
O     1.5581643   -1.6842836   -3.9239728 
H     1.1145310   -2.5636284   -3.7041633 
N     2.9470703   -2.8783986   -1.1759397 
H     0.9794232   -2.1614848   -1.3928083 
H     3.6423924   -2.9695384   -1.9562453 
H     3.5206524   -2.7559238   -0.3072051 
