24
Energy =
C     1.4883922    2.6290989   -1.2544500 
C     0.6303332    3.0101538   -0.2726821 
C     0.0802449    2.0749733    0.5323225 
C     1.7920767    1.3173375   -1.4239243 
C     1.2437055    0.3691502   -0.6101966 
C     0.3797221    0.7614471    0.3683734 
O     0.2945362    4.3523950   -0.0715468 
H     0.7488311    4.9934817   -0.7131574 
H    -0.0894989    0.0424613    1.0240519 
H     2.4756574    1.0349706   -2.2210203 
H     1.9322274    3.3726083   -1.9081436 
H    -0.6068665    2.3931168    1.3092814 
C     1.5869769   -1.0997819   -0.8223103 
C     0.4695168   -2.0198787   -1.4351276 
H     1.9809002   -1.5207721    0.1269936 
H     2.4703987   -1.1602006   -1.4981749 
C    -0.1373776   -3.0744124   -0.4934377 
O    -0.6388874   -4.2378826   -1.0599747 
O    -0.2606746   -2.9247482    0.8883160 
H     0.1672560   -2.0946608    1.2458677 
N    -0.5543886   -1.2982552   -2.2340651 
H     1.0024445   -2.6778479   -2.1618017 
H    -1.5268657   -1.5703049   -1.9480209 
H    -0.5079272   -0.2582453   -2.1863305 
