24
Energy =
C     1.1191045    2.3436679    0.3112566 
C     0.3814855    2.8944803   -0.6800800 
C     0.0892372    2.1738561   -1.7868498 
C     1.5755757    1.0703774    0.1953115 
C     1.2921259    0.3409281   -0.9200556 
C     0.5421372    0.8999195   -1.9104601 
O    -0.0857747    4.1988672   -0.5568240 
H     0.5842833    4.8580579   -0.9376089 
H     0.2985754    0.3300460   -2.8043152 
H     2.1627050    0.6405100    1.0027210 
H     1.3344340    2.9294161    1.1986740 
H    -0.5143306    2.6249212   -2.5675091 
C     1.7828506   -1.0838839   -1.0523436 
C     0.6635034   -2.1156808   -0.7701282 
H     2.6454858   -1.2675226   -0.3734355 
H     2.1715579   -1.2267930   -2.0869299 
C     1.0676467   -3.5046520   -1.2386151 
O     0.5198458   -4.0253010   -2.4029404 
O     2.0579742   -4.2227300   -0.5773283 
H     2.9606338   -3.8423252   -0.8148277 
N     0.3043797   -2.1160530    0.6597061 
H    -0.2429096   -1.8664006   -1.3712971 
H     1.1306020   -2.3941362    1.2425439 
H    -0.0105129   -1.1648317    0.9614112 
