24
Energy =
C     1.0138822    2.5312888   -0.0252553 
C    -0.3057772    2.5281090    0.2715968 
C    -0.9718865    1.3458893    0.3589893 
C     1.6757301    1.3644817   -0.2329163 
C     1.0156686    0.1776278   -0.1355292 
C    -0.3148776    0.1762485    0.1530464 
O    -0.9524366    3.7508754    0.4785891 
H    -1.9400949    3.6642013    0.6919131 
H    -0.8617158   -0.7618409    0.2086054 
H     2.7344251    1.3904325   -0.4794140 
H     1.5323459    3.4813183   -0.0978813 
H    -2.0320453    1.3333145    0.5880264 
C     1.7450984   -1.1241223   -0.3869284 
C     1.6105907   -1.5728643   -1.8541835 
H     1.3558693   -1.9211467    0.2855411 
H     2.8216338   -1.0066248   -0.1244510 
C     2.6025123   -2.6828849   -2.1667332 
O     2.4959416   -3.9150663   -1.5363801 
O     3.6456523   -2.4612118   -3.0535236 
H     3.3009744   -2.5534917   -3.9979294 
N     0.2162571   -1.9791371   -2.1122446 
H     1.8774312   -0.7152636   -2.5162698 
H     0.0899667   -2.1352664   -3.1405153 
H     0.0284010   -2.9036717   -1.6511892 
