24
Energy =
C    -0.5516395    2.1579010   -0.3552768 
C     0.4095800    2.9957383   -0.8057145 
C     1.6696033    2.5258002   -1.0093165 
C    -0.2645819    0.8556076   -0.1021948 
C     0.9953890    0.3809860   -0.2997055 
C     1.9612842    1.2236559   -0.7599107 
O     0.0756432    4.3309587   -1.0527140 
H     0.8485316    4.8938913   -1.3907506 
H     2.9718008    0.8628981   -0.9332185 
H    -1.0494214    0.1849524    0.2385798 
H    -1.5547064    2.5434240   -0.2063053 
H     2.4460704    3.1897949   -1.3739339 
C     1.3071703   -1.0771960   -0.0216451 
C     0.7226528   -2.0945287   -1.0579245 
H     0.9521102   -1.3001323    1.0100627 
H     2.4081691   -1.2253785    0.0351124 
C    -0.1324887   -3.1708824   -0.3857857 
O     0.1876738   -3.6324417    0.8847586 
O    -1.1763427   -3.7797675   -1.0689449 
H    -2.0044671   -3.2163491   -0.9477443 
N    -0.0063558   -1.3981601   -2.1403925 
H     1.5717624   -2.6660783   -1.5016103 
H     0.6754089   -0.8344535   -2.7020952 
H    -0.3893984   -2.1085836   -2.8122844 
