24
Energy =
C    -0.9415513    1.4453431    0.3392265 
C    -0.3257977    2.5999457   -0.0301463 
C     0.9264676    2.5564101   -0.5390857 
C    -0.3008559    0.2566835    0.2010927 
C     0.9634724    0.2123126   -0.3018489 
C     1.5714175    1.3703809   -0.6804288 
O    -0.9567471    3.8412459    0.0992852 
H    -1.8938014    3.7901992    0.4839837 
H     2.5747236    1.3572481   -1.0991963 
H    -0.8090868   -0.6625768    0.4827047 
H    -1.9491486    1.4694635    0.7401376 
H     1.4036424    3.4845518   -0.8346684 
C     1.6705148   -1.1145117   -0.4756119 
C     1.2574600   -1.8075481   -1.7886104 
H     1.4490814   -1.7838089    0.3860815 
H     2.7735661   -0.9583210   -0.4593431 
C     2.2135176   -2.9398947   -2.1272761 
O     2.4704507   -3.9418424   -1.2013503 
O     2.8257312   -2.9901406   -3.3707324 
H     2.1704475   -3.3597591   -4.0438314 
N    -0.1385375   -2.2716381   -1.6726888 
H     1.3438606   -1.0725868   -2.6245525 
H    -0.4742181   -2.5906967   -2.6125603 
H    -0.1787212   -3.1124707   -1.0443717 
