24
Energy =
C     0.6311823    2.4333383    0.0550313 
C    -0.3502622    2.6995430   -0.8477869 
C    -0.5963262    1.8209173   -1.8458308 
C     1.3602411    1.2929808   -0.0459341 
C     1.1155885    0.4096530   -1.0531300 
C     0.1292361    0.6790721   -1.9518125 
O    -1.1198263    3.8649155   -0.7726928 
H    -0.8764793    4.4719036    0.0026273 
H    -0.0866287   -0.0157989   -2.7591924 
H     2.1375946    1.0921899    0.6872435 
H     0.8338513    3.1311374    0.8603958 
H    -1.3834642    2.0440321   -2.5578014 
C     1.9145335   -0.8703725   -1.1624837 
C     1.1317594   -2.0985058   -0.6351053 
H     2.8812841   -0.7818219   -0.6153267 
H     2.1910562   -1.0259159   -2.2296646 
C     1.8581990   -3.3905228   -0.9759572 
O     3.1735290   -3.5810576   -0.5707640 
O     1.2473206   -4.3586268   -1.7625601 
H     1.2931794   -4.0758490   -2.7290697 
N     0.9098982   -1.9908207    0.8168852 
H     0.1423687   -2.1580404   -1.1439483 
H     1.8251190   -1.8764489    1.3157514 
H     0.3138678   -1.1576926    1.0312736 
