24
Energy =
C     0.2127764    1.6655033    1.1708883 
C     0.1460545    2.7543588    0.3712802 
C     0.6187083    2.6834131   -0.9020661 
C     0.7518001    0.5076127    0.7131107 
C     1.2312848    0.4322687   -0.5597284 
C     1.1580789    1.5278330   -1.3660727 
O    -0.4078386    3.9327897    0.8832941 
H    -0.4535515    4.6911193    0.2115479 
H     1.5194306    1.4806518   -2.3896569 
H     0.7843629   -0.3596715    1.3660997 
H    -0.1765978    1.7311752    2.1806289 
H     0.5623459    3.5485639   -1.5535989 
C     1.8291894   -0.8562967   -1.0795687 
C     0.8558760   -1.8440159   -1.8277912 
H     2.2951362   -1.4025687   -0.2289462 
H     2.7025809   -0.5815861   -1.7070596 
C    -0.6439133   -1.5067367   -1.9220979 
O    -1.2097125   -0.3522421   -1.3974753 
O    -1.4921665   -2.4163122   -2.5399876 
H    -2.4384075   -2.0591002   -2.5026153 
N     1.4139384   -2.2580694   -3.1415769 
H     0.8227393   -2.7660107   -1.2046328 
H     0.7686159   -1.9972328   -3.9272014 
H     2.3442922   -1.8412572   -3.3675073 
