24
Energy =
C     0.2966642    2.4766575    0.0898973 
C     0.0956089    1.9475739    1.3185091 
C     0.4660169    0.6721436    1.5745634 
C     0.8754175    1.7326322   -0.8871095 
C     1.2554521    0.4485094   -0.6358129 
C     1.0496535   -0.0764042    0.6042930 
O    -0.5006043    2.7133655    2.3157722 
H     0.1995021    3.2259623    2.8405471 
H     1.3384222   -1.1021015    0.8251778 
H     1.0282704    2.1708876   -1.8697928 
H    -0.0149074    3.4974911   -0.1035182 
H     0.2853588    0.2551082    2.5595057 
C     1.8933630   -0.3889018   -1.7252265 
C     0.9059358   -1.3486182   -2.4389934 
H     2.7254081   -0.9839666   -1.2816168 
H     2.3758068    0.2694625   -2.4814817 
C     0.3489936   -2.4322618   -1.5138687 
O     1.0715809   -3.6096874   -1.3675709 
O    -0.8018222   -2.2623444   -0.7441466 
H    -1.2344642   -1.3686666   -0.9089100 
N    -0.1375440   -0.5991673   -3.1666715 
H     1.4920124   -1.9352430   -3.1869803 
H    -0.6204487    0.0842863   -2.5385627 
H     0.3060348   -0.0370760   -3.9309777 
