24
Energy =
C    -0.0262341    0.8913603    1.4955834 
C    -0.0211397    2.1453065    0.9870332 
C     0.5531066    2.3864102   -0.2138680 
C     0.5575781   -0.1254084    0.8110397 
C     1.1545235    0.1134190   -0.3901159 
C     1.1418180    1.3761082   -0.9026106 
O    -0.6142383    3.1853838    1.6959633 
H     0.0556678    3.6277133    2.3151481 
H     1.5830230    1.5757767   -1.8772838 
H     0.5370646   -1.1285695    1.2283221 
H    -0.5089840    0.7093083    2.4498446 
H     0.5266407    3.3907740   -0.6226702 
C     1.7971153   -1.0166350   -1.1711632 
C     0.9483399   -1.5621210   -2.3582054 
H     2.0459677   -1.8584945   -0.4878651 
H     2.7831415   -0.6560045   -1.5433411 
C    -0.4325480   -0.8986361   -2.5071830 
O    -0.5964773    0.1936894   -3.3525737 
O    -1.5305747   -1.3390983   -1.7655427 
H    -1.2881615   -2.0978126   -1.1469618 
N     1.7501655   -1.4598740   -3.5912634 
H     0.7462925   -2.6414524   -2.1685566 
H     2.5190375   -2.1705896   -3.5615132 
H     1.1576127   -1.7080874   -4.4205495 
