24
Energy =
C     1.3075743    2.5164193   -0.6025760 
C     0.0825679    2.7445899   -0.0582629 
C    -0.6624215    1.7012180    0.3716280 
C     1.7807964    1.2491600   -0.7103735 
C     1.0344472    0.1984414   -0.2708897 
C    -0.1948437    0.4315318    0.2652276 
O    -0.4345634    4.0377285    0.0703403 
H     0.1785228    4.7632880   -0.2855727 
H    -0.8109495   -0.3944622    0.6103206 
H     2.7585840    1.0825798   -1.1579725 
H     1.9104287    3.3457639   -0.9565240 
H    -1.6395525    1.8977644    0.7989163 
C     1.5481067   -1.2181982   -0.4120098 
C     1.0357588   -1.8910608   -1.7094754 
H     1.2260093   -1.8131986    0.4709129 
H     2.6633268   -1.2290772   -0.4078376 
C     1.5251491   -1.1709688   -2.9554605 
O     2.8732658   -0.8644946   -3.1223986 
O     0.6187050   -0.7934192   -3.9384124 
H     1.1283786   -0.3471925   -4.6894469 
N     1.4301954   -3.3164656   -1.7455611 
H    -0.0764126   -1.8033357   -1.7442552 
H     1.9445690   -3.6232643   -0.8864819 
H     0.5791382   -3.9207909   -1.8310747 
