24
Energy =
C    -0.6919400    1.3234058    0.8944581 
C    -0.1530906    2.5002579    0.5010224 
C     0.9926127    2.5134707   -0.2182846 
C    -0.0811275    0.1535250    0.5767296 
C     1.0781791    0.1594211   -0.1390871 
C     1.6095859    1.3478637   -0.5400755 
O    -0.7838203    3.6968539    0.8261003 
H    -0.4476861    4.0487426    1.7158548 
H     2.5273554    1.3734168   -1.1229717 
H    -0.5302706   -0.7858222    0.8912320 
H    -1.6184855    1.3275152    1.4586220 
H     1.4059837    3.4640462   -0.5382419 
C     1.7543382   -1.1405674   -0.5148469 
C     1.4273984   -1.5721443   -1.9608759 
H     1.4562546   -1.9579064    0.1812774 
H     2.8552829   -1.0252348   -0.3908600 
C     2.3573673   -2.6923939   -2.4114541 
O     2.8464459   -3.6222954   -1.5019521 
O     2.7154177   -2.8044782   -3.7481787 
H     1.9552886   -3.2275676   -4.2593860 
N     0.0124576   -1.9783207   -2.0397616 
H     1.6184253   -0.7191001   -2.6538658 
H    -0.5911682   -1.1294584   -1.9307512 
H    -0.1933988   -2.3377693   -3.0020312 
