24
Energy =
C     1.5108984    2.4153282   -1.3068863 
C     1.0873142    2.8173174   -0.0874576 
C     0.7957881    1.8887773    0.8620491 
C     1.6549083    1.0944097   -1.5845500 
C     1.3735716    0.1602749   -0.6346014 
C     0.9335156    0.5665681    0.5887294 
O     0.9596369    4.1874172    0.1626504 
H     0.6200599    4.4073462    1.0925811 
H     0.6865807   -0.1623548    1.3569509 
H     1.9755389    0.7924972   -2.5787569 
H     1.7244817    3.1662913   -2.0601394 
H     0.4485389    2.2015578    1.8409691 
C     1.5099069   -1.3165211   -0.9429911 
C     0.2581985   -1.8792004   -1.6471532 
H     1.6719318   -1.8810199    0.0036888 
H     2.4178877   -1.5038160   -1.5571957 
C     0.1871636   -1.4584330   -3.1107490 
O    -0.4226666   -0.2624752   -3.4575761 
O     0.8065020   -2.2071509   -4.1028710 
H     1.7949177   -2.0103157   -4.0997730 
N     0.2461610   -3.3441473   -1.4765368 
H    -0.6551221   -1.4535327   -1.1660325 
H    -0.6291144   -3.7294512   -1.9082926 
H     1.0357556   -3.7676392   -2.0215225 
