24
Energy =
C    -0.0165817    1.4797868    1.2095391 
C     0.1013115    2.6129628    0.4794314 
C     0.7433295    2.5873053   -0.7111483 
C     0.5238792    0.3186351    0.7593089 
C     1.1913122    0.2899901   -0.4282299 
C     1.2875126    1.4306924   -1.1670443 
O    -0.4456203    3.8031440    0.9493415 
H     0.2298991    4.3150815    1.5053742 
H     1.7784175    1.4138897   -2.1369137 
H     0.4083390   -0.5872261    1.3489041 
H    -0.5556423    1.5091029    2.1504882 
H     0.8052267    3.4956330   -1.3003556 
C     1.7817758   -1.0072859   -0.9466748 
C     0.8680978   -1.7991898   -1.9303272 
H     2.0420963   -1.6643407   -0.0873335 
H     2.7569437   -0.7780756   -1.4318508 
C    -0.5369437   -1.2196454   -2.0941368 
O    -1.6127727   -1.8272166   -1.4604724 
O    -0.7617654   -0.0866411   -2.8659591 
H    -0.8977343   -0.3777568   -3.8216105 
N     1.5595399   -1.9397453   -3.2269824 
H     0.7052459   -2.8157817   -1.4996046 
H     2.4252363   -2.5149777   -3.0931451 
H     0.9568398   -2.4937519   -3.8819382 
