24
Energy =
C     0.0887256    1.6332537    0.9784631 
C     0.2893151    2.7260166    0.2068228 
C     0.9799879    2.6191485   -0.9510450 
C     0.5880363    0.4293313    0.5990683 
C     1.2963904    0.3154805   -0.5594671 
C     1.4857319    1.4191158   -1.3355469 
O    -0.2232058    3.9584178    0.5995568 
H     0.4479497    4.4600278    1.1703717 
H     2.0263920    1.3450458   -2.2769448 
H     0.4137183   -0.4418662    1.2260961 
H    -0.4801739    1.7307769    1.8968416 
H     1.1140782    3.4995854   -1.5704313 
C     1.8415583   -1.0329739   -0.9829715 
C     0.7763460   -1.9052408   -1.6875081 
H     2.2100515   -1.5622518   -0.0749804 
H     2.7339350   -0.9142160   -1.6378434 
C     0.6665447   -1.5970159   -3.1826960 
O     0.6359627   -0.2864630   -3.6351320 
O     0.5277294   -2.6206012   -4.1108339 
H    -0.4213055   -2.9622852   -4.0827722 
N     1.1051579   -3.3197032   -1.4247971 
H    -0.2280507   -1.6837554   -1.2568570 
H     0.3124463   -3.9245768   -1.7459940 
H     1.9304499   -3.5986424   -2.0113117 
