24
Energy =
C     1.1496840    2.5177625    0.0279700 
C    -0.1900963    2.7023228    0.1654790 
C    -1.0209424    1.6380471    0.1085854 
C     1.6511967    1.2705100   -0.1594511 
C     0.8174067    0.1942384   -0.2049800 
C    -0.5245444    0.3877196   -0.0735731 
O    -0.7404117    3.9715212    0.3649498 
H    -0.0574444    4.7220408    0.3628962 
H    -1.2052242   -0.4564448   -0.1575329 
H     2.7240661    1.1447493   -0.2837812 
H     1.8232561    3.3676784    0.0609667 
H    -2.0889775    1.8075080    0.1981180 
C     1.3748915   -1.2040952   -0.4150768 
C     1.0420611   -1.8560480   -1.7898801 
H     1.0021570   -1.8628922    0.3988084 
H     2.4797464   -1.1903102   -0.2759575 
C     0.2754742   -0.9550185   -2.7488270 
O    -1.1152591   -0.9650431   -2.7312228 
O     0.9385643   -0.0547910   -3.5714906 
H     0.2587771    0.4606357   -4.1162649 
N     2.2843108   -2.3770460   -2.3861249 
H     0.3576888   -2.7164216   -1.6059765 
H     2.0394343   -2.9060896   -3.2570622 
H     2.8529601   -1.5606103   -2.7223738 
