24
Energy =
C    -1.1485567    1.5187406   -0.2322385 
C    -0.4838636    2.6312945   -0.6193916 
C     0.8380700    2.5670098   -0.8988153 
C    -0.4904423    0.3377989   -0.1145634 
C     0.8436273    0.2658080   -0.3848364 
C     1.5040825    1.3901307   -0.7800976 
O    -1.1624968    3.8400200   -0.7383885 
H    -1.1559828    4.3441336    0.1414259 
H     2.5660256    1.3562610   -1.0117845 
H    -1.0374305   -0.5493524    0.1939630 
H    -2.2111626    1.5818904   -0.0245893 
H     1.3560911    3.4630317   -1.2241433 
C     1.5717303   -1.0571607   -0.2631488 
C     1.3056485   -1.9814065   -1.4780315 
H     1.2369578   -1.5571001    0.6721062 
H     2.6678950   -0.8977025   -0.1436484 
C     2.0245852   -1.5346503   -2.7571680 
O     2.9895266   -0.5340321   -2.7217743 
O     1.7482655   -2.1466140   -3.9771057 
H     1.1803014   -2.9687277   -3.8326450 
N     1.6613542   -3.3683817   -1.1296378 
H     0.2191158   -1.9500881   -1.7250146 
H     2.6653058   -3.4176519   -0.8265675 
H     1.0743578   -3.7036767   -0.3284562 
