24
Energy =
C    -0.2666470    2.3308248   -0.4525446 
C     0.7273279    2.9348703    0.2327155 
C     1.8955172    2.2901210    0.4342528 
C    -0.1031245    1.0717513   -0.9337822 
C     1.0750834    0.3997670   -0.7322185 
C     2.0705194    1.0322882   -0.0419294 
O     0.5509447    4.2247414    0.7233939 
H     0.1669135    4.2028148    1.6617580 
H     3.0218700    0.5343689    0.1332692 
H    -0.9374533    0.6509073   -1.4708717 
H    -1.1954192    2.8670830   -0.6168059 
H     2.6903898    2.7919476    0.9759808 
C     1.3749612   -1.0178801   -1.2262605 
C     0.2877795   -1.8225670   -2.0090429 
H     1.6746842   -1.6109391   -0.3333617 
H     2.3037490   -0.9604117   -1.8400788 
C     0.7713404   -2.1966370   -3.4050514 
O     0.0923303   -1.7416650   -4.5279765 
O     1.8953267   -2.9959189   -3.5694774 
H     2.0513102   -3.1309064   -4.5608019 
N    -0.0820066   -3.0151326   -1.2226519 
H    -0.6311575   -1.2428156   -2.1911432 
H    -0.8781628   -3.5041262   -1.6980468 
H     0.7182831   -3.6951395   -1.2390058 
