24
Energy =
C     1.1012228    2.0226115   -2.4831857 
C    -0.0298997    2.6422941   -2.0517826 
C    -0.6154664    2.2401444   -0.9014076 
C     1.6425613    1.0085586   -1.7607971 
C     1.0591181    0.6099740   -0.5971868 
C    -0.0799745    1.2267523   -0.1758274 
O    -0.6121514    3.6909874   -2.7703788 
H    -0.1252733    3.9318715   -3.6265327 
H    -0.5722796    0.9047101    0.7391673 
H     2.5382172    0.5111489   -2.1239269 
H     1.5702202    2.3344025   -3.4094833 
H    -1.5221950    2.7356606   -0.5709824 
C     1.6452452   -0.5382057    0.2000604 
C     1.1367882   -1.9508958   -0.2264425 
H     1.4519626   -0.3547657    1.2825584 
H     2.7538518   -0.5106568    0.1116239 
C     0.6147210   -2.7382941    0.9656852 
O    -0.3497042   -2.1911428    1.8020735 
O     1.0811626   -4.0206784    1.2163914 
H     0.6193945   -4.6662291    0.5924105 
N     0.1412609   -1.8716791   -1.3145388 
H     2.0170747   -2.5270543   -0.5958673 
H    -0.0537165   -2.8333331   -1.6813657 
H    -0.7671961   -1.5130010   -0.9310986 
