24
Energy =
C     1.1303359    1.9908286   -2.0788013 
C     2.0400991    2.5862791   -1.2741208 
C     2.1516672    2.2071775    0.0202541 
C     0.3293721    1.0095544   -1.5902335 
C     0.4359374    0.6218217   -0.2888031 
C     1.3557151    1.2243685    0.5151795 
O     2.8575116    3.5925915   -1.7768453 
H     3.7158986    3.2033423   -2.1512568 
H     1.4596113    0.9276911    1.5556425 
H    -0.3846501    0.5077786   -2.2432315 
H     1.0531598    2.3046799   -3.1145995 
H     2.8812794    2.6995462    0.6545693 
C    -0.4635150   -0.4755106    0.2431299 
C    -0.1200713   -1.9106238   -0.2665718 
H    -1.5097302   -0.1999506   -0.0225727 
H    -0.4505584   -0.4793920    1.3553346 
C    -1.3786257   -2.6465811   -0.7108302 
O    -1.6169437   -3.9438956   -0.2733678 
O    -2.2964674   -2.0419418   -1.5634848 
H    -3.0324926   -2.7073905   -1.7618370 
N     0.8990895   -1.8841861   -1.3372040 
H     0.2760686   -2.4998883    0.5943153 
H     1.8295615   -1.6589043   -0.9117017 
H     1.0023907   -2.8480846   -1.7387574 
