24
Energy =
C     0.5546623    2.4557371   -0.9314688 
C    -0.4896637    2.5023500   -0.0732946 
C    -0.7674397    1.4237765    0.7062620 
C     1.3263440    1.3425394   -1.0166267 
C     1.0586703    0.2622686   -0.2326955 
C     0.0015988    0.3087496    0.6266028 
O    -1.2603839    3.6676584   -0.0140663 
H    -2.0376247    3.6165649    0.6357611 
H    -0.2447885   -0.5523472    1.2439972 
H     2.1510122    1.3178998   -1.7243189 
H     0.7600671    3.3196008   -1.5545992 
H    -1.6091060    1.4470464    1.3901274 
C     1.9052987   -0.9909800   -0.3433514 
C     1.3774264   -1.9743536   -1.4106765 
H     1.9516489   -1.5049965    0.6437969 
H     2.9540894   -0.7139327   -0.5889113 
C    -0.0177210   -2.4840693   -1.0542297 
O    -0.1280856   -3.5787595   -0.2066209 
O    -1.1820809   -1.8342099   -1.4629805 
H    -0.9706489   -1.0375797   -2.0480678 
N     1.4397141   -1.3455419   -2.7428255 
H     2.0289124   -2.8801920   -1.4028611 
H     2.4415845   -1.1769300   -2.9982987 
H     1.0726497   -2.0200741   -3.4570583 
