24
Energy =
C    -0.1274629    1.5993172    1.0252478 
C    -0.1827785    2.6158758    0.1343867 
C     0.4447473    2.5052440   -1.0590229 
C     0.5649384    0.4699877    0.7288790 
C     1.2081682    0.3554694   -0.4666778 
C     1.1385942    1.3786794   -1.3631336 
O    -0.8953087    3.7707507    0.4406123 
H    -0.2969109    4.4503439    0.8972987 
H     1.6347918    1.3014170   -2.3273013 
H     0.5932154   -0.3446966    1.4491171 
H    -0.6477535    1.6958119    1.9722401 
H     0.3804804    3.3233165   -1.7685017 
C     1.9623631   -0.9093832   -0.8124024 
C     1.1056972   -1.8856560   -1.6445130 
H     2.3021624   -1.4281357    0.1144368 
H     2.8879539   -0.6409796   -1.3699778 
C     1.9656588   -3.0097461   -2.2069522 
O     2.9171407   -3.6420729   -1.4164068 
O     1.7951360   -3.4241341   -3.5217420 
H     2.2662153   -2.7791417   -4.1387458 
N     0.0153414   -2.4107103   -0.8020001 
H     0.6820337   -1.3511970   -2.5270919 
H    -0.7191671   -1.6724036   -0.6924532 
H    -0.4568963   -3.2065162   -1.2968833 
