24
Energy =
C     1.0072930    2.1572053    0.9476061 
C    -0.0527316    2.7174251    0.3252407 
C    -0.5102763    2.1786381   -0.8346630 
C     1.6106323    1.0594945    0.4258278 
C     1.1429815    0.4937234   -0.7253152 
C     0.0897281    1.0808436   -1.3621807 
O    -0.6463228    3.8492311    0.8932671 
H    -1.4452033    4.2003927    0.3763683 
H    -0.2815496    0.6895019   -2.3014385 
H     2.4688286    0.6383720    0.9433724 
H     1.3694684    2.6026362    1.8681399 
H    -1.3534142    2.6290192   -1.3477318 
C     1.8607905   -0.7151707   -1.3176669 
C     0.9971359   -1.9759163   -1.6179030 
H     2.7051232   -1.0269882   -0.6624173 
H     2.3357457   -0.3824703   -2.2666552 
C     0.3795756   -2.7294704   -0.4236395 
O    -0.1857916   -3.9737881   -0.6737447 
O     0.4117462   -2.2945930    0.9010073 
H     0.7478250   -1.3594788    1.0012214 
N     0.0039534   -1.6653611   -2.6632162 
H     1.7031018   -2.7365343   -2.0309592 
H     0.4987604   -1.5092684   -3.5737171 
H    -0.6161420   -2.4990054   -2.8206095 
