24
Energy =
C     0.0443119    1.7664647    0.8292327 
C     0.5661827    2.7385834    0.0464841 
C     1.4228431    2.4184697   -0.9497819 
C     0.3732937    0.4671025    0.6140690 
C     1.2396054    0.1368601   -0.3840357 
C     1.7589697    1.1219575   -1.1700930 
O     0.2253524    4.0688070    0.2690607 
H    -0.5982129    4.3198136   -0.2676177 
H     2.4327260    0.8791377   -1.9893689 
H    -0.0631729   -0.3036906    1.2443408 
H    -0.6391129    2.0386617    1.6264467 
H     1.8307424    3.2087793   -1.5708876 
C     1.5826669   -1.3143065   -0.6463150 
C     0.6025172   -1.9615992   -1.6563212 
H     1.5478096   -1.8765663    0.3137915 
H     2.6287281   -1.4009219   -1.0146054 
C     0.6279786   -1.2511340   -3.0110973 
O    -0.4867158   -0.5344247   -3.4240287 
O     1.7684355   -1.2404379   -3.8160287 
H     2.4968332   -1.8300426   -3.4452751 
N     0.8457344   -3.4207909   -1.7616639 
H    -0.4382763   -1.8164591   -1.2801795 
H     1.1903817   -3.6999395   -2.7118545 
H     1.5360411   -3.7781464   -1.0595469 
