24
Energy =
C     0.8043456    1.0348293    1.4950262 
C     0.8025251    2.3161260    1.0420520 
C     1.0422556    2.5624251   -0.2653591 
C     1.0443403    0.0090073    0.6395624 
C     1.2760124    0.2528047   -0.6811248 
C     1.2799105    1.5405009   -1.1266701 
O     0.5602211    3.3965088    1.8965808 
H     0.3774042    3.1280231    2.8574954 
H     1.4739215    1.7642202   -2.1722941 
H     1.0389894   -1.0098864    1.0208719 
H     0.6114530    0.8261429    2.5417927 
H     1.0412148    3.5902198   -0.6117586 
C     1.5449063   -0.8924701   -1.6414605 
C     0.2712847   -1.6701791   -2.0710701 
H     2.2643206   -1.5982977   -1.1662777 
H     2.0578047   -0.5180184   -2.5552263 
C    -0.3559653   -2.4317230   -0.9028969 
O     0.1579125   -3.6752743   -0.5630189 
O    -1.3126274   -1.8611838   -0.0691250 
H    -2.2036864   -1.8259149   -0.5389337 
N    -0.6644336   -0.8182524   -2.8469423 
H     0.6107543   -2.4816158   -2.7553734 
H    -1.6281322   -0.8201355   -2.4444356 
H    -0.3694396    0.1845880   -2.8633523 
