24
Energy =
C     0.8377646    2.7304125   -0.6745061 
C    -0.1652229    2.7565719    0.2337158 
C    -0.5378740    1.6190403    0.8641220 
C     1.4691892    1.5628369   -0.9607326 
C     1.1018061    0.4150261   -0.3265951 
C     0.0887957    0.4479853    0.5840076 
O    -0.8103843    3.9546198    0.5230785 
H    -1.6058316    4.0917447   -0.0907649 
H    -0.2261849   -0.4648992    1.0864862 
H     2.2687298    1.5537275   -1.6972967 
H     1.1305887    3.6519831   -1.1664129 
H    -1.3398205    1.6559229    1.5937050 
C     1.7859142   -0.8941180   -0.6525014 
C     1.1736332   -1.7634812   -1.8136758 
H     1.8575333   -1.4831917    0.2903583 
H     2.8519999   -0.6830927   -0.8942576 
C     0.9715464   -3.2220033   -1.3870976 
O     0.5293360   -3.5196165   -0.1012562 
O     1.1918388   -4.2770148   -2.2745975 
H     1.3808240   -3.9480716   -3.2091501 
N    -0.0766673   -1.2425183   -2.4167222 
H     1.9555793   -1.7932315   -2.6076471 
H    -0.4198970   -0.3338845   -2.0416384 
H     0.0527252   -1.1068187   -3.4468599 
