24
Energy =
C    -1.1202071    0.5835515    0.6985936 
C    -0.8893229    1.9117427    0.5946278 
C     0.2893212    2.3575200    0.1033064 
C    -0.1736194   -0.3060655    0.3049490 
C     1.0146636    0.1335723   -0.1972797 
C     1.2403132    1.4742174   -0.2944998 
O    -1.8617836    2.8197936    1.0003344 
H    -2.4708249    3.0594813    0.2252274 
H     2.1793123    1.8476227   -0.6939858 
H    -0.3801189   -1.3699233    0.3829659 
H    -2.0696525    0.2409645    1.0958720 
H     0.4626915    3.4259642    0.0326879 
C     2.0695556   -0.8547370   -0.6550768 
C     1.8715665   -1.3416423   -2.1147174 
H     2.0825431   -1.7292641    0.0329983 
H     3.0794362   -0.3967010   -0.5625277 
C     0.6195440   -2.1928433   -2.2885219 
O    -0.6306317   -1.6075285   -2.4537219 
O     0.7001609   -3.5745921   -2.1606924 
H     0.7321420   -3.8181619   -1.1827258 
N     1.9194815   -0.2154775   -3.0646721 
H     2.7128977   -2.0285787   -2.3616940 
H     1.0742772    0.3929838   -2.9458551 
H     2.7666985    0.3732787   -2.8888048 
