24
Energy =
C    -1.0784379    1.2760753   -0.5555768 
C    -0.9990150    1.4587988    0.7820822 
C     0.1530124    1.1528796    1.4361489 
C    -0.0065108    0.8090547   -1.2657276 
C     1.1337530    0.4663784   -0.5849118 
C     1.2120872    0.6444601    0.7586085 
O    -2.1152722    1.9592616    1.4624416 
H    -1.9804947    2.0785855    2.4598545 
H     2.1070094    0.3544951    1.3027796 
H    -0.0660296    0.6050089   -2.9431544 
H    -1.9973421    1.5375827   -1.0685859 
H     0.2173364    1.2910430    2.5091212 
C     2.1908074   -0.2939001   -1.3495421 
C     1.5320301   -1.4942617   -2.0637805 
H     3.0076824   -0.6526680   -0.6853200 
H     2.6506701    0.3907888   -2.0992921 
C     0.1881641   -1.0342816   -2.5942117 
O    -0.8133825   -1.9349818   -2.9291249 
O    -0.2971300    2.1638664   -2.8985252 
H     0.5474685    2.7295838   -2.7783880 
N     2.4130617   -1.9449711   -3.1471940 
H     1.3320032   -2.3184452   -1.3354950 
H     3.2879047   -2.3441948   -2.7312149 
H     1.9509210   -2.7374621   -3.6582648 
