24
Energy =
C    -0.7260229    1.6054371    0.6280682 
C    -0.2902195    2.6582207   -0.1009837 
C     0.7777548    2.5191276   -0.9193175 
C    -0.0899849    0.4090670    0.5466297 
C     0.9890459    0.2616051   -0.2727544 
C     1.4194939    1.3261207   -1.0061946 
O    -0.9460774    3.8821390   -0.0158384 
H    -0.5431446    4.4549585    0.7176718 
H     2.2776633    1.2287552   -1.6670249 
H    -0.4530318   -0.4257005    1.1402537 
H    -1.5897474    1.7288397    1.2725964 
H     1.1098466    3.3693298   -1.5056377 
C     1.7004279   -1.0702437   -0.3808831 
C     1.3762455   -1.7957318   -1.7120077 
H     1.4430597   -1.7315757    0.4774315 
H     2.7972865   -0.8859168   -0.3104901 
C     2.3420888   -2.9456863   -1.9511426 
O     3.4578121   -2.7462370   -2.7542653 
O     2.2028864   -4.1563780   -1.2828937 
H     2.5895417   -4.0670966   -0.3567612 
N    -0.0243075   -2.2694533   -1.7423322 
H     1.5578423   -1.0937249   -2.5606218 
H    -0.5703684   -1.9840799   -0.8975390 
H    -0.5174426   -1.8596397   -2.5702307 
