24
Energy =
C     0.9178349    3.0158778   -0.4714359 
C    -0.1023147    3.1582022   -1.3372822 
C    -0.6453672    2.0586213   -1.9117438 
C     1.3985244    1.7845045   -0.1739054 
C     0.8661853    0.6509478   -0.7359081 
C    -0.1699910    0.8190650   -1.6205503 
O    -0.5720349    4.4447477   -1.6211851 
H    -1.3460604    4.4684574   -2.2761876 
H    -0.6678029    0.0340095   -2.1326039 
H     2.2265291    1.7180601    0.5291591 
H     1.3476413    3.9027231   -0.0175940 
H    -1.4671254    2.1678487   -2.6123420 
C     1.5446131   -0.6663755   -0.2835299 
C     1.3040195   -2.2119021   -0.5845427 
H     1.5385859   -0.5772032    0.8290752 
H     2.6185930   -0.5080272   -0.5350829 
C     1.1490436   -3.0041486    0.7069381 
O     0.0822991   -2.7548836    1.5656649 
O     2.1144014   -3.9368977    1.0726453 
H     1.8420485   -4.3716411    1.9449174 
N     0.2453539   -2.6156869   -1.5247458 
H     2.2710341   -2.5933479   -0.9952514 
H    -0.2960045   -1.8585721   -1.9381902 
H     0.6523375   -3.1696782   -2.3156715 
