24
Energy =
C     1.5929084    2.6256078   -1.2059300 
C     0.4426197    3.0054450   -0.6041716 
C    -0.2927646    2.1011403    0.0822197 
C     2.0086556    1.3358674   -1.1299011 
C     1.2695397    0.4163873   -0.4482279 
C     0.1158930    0.8093440    0.1617762 
O     0.0190169    4.3283745   -0.6842118 
H    -0.5970608    4.4574341   -1.4794816 
H    -0.4832250    0.0933206    0.7176732 
H     2.9281103    1.0435290   -1.6312712 
H     2.1753851    3.3607120   -1.7507172 
H    -1.2068557    2.4224408    0.5691634 
C     1.7236919   -1.0259837   -0.3590473 
C     0.8868978   -1.9783595   -1.2477838 
H     1.6543546   -1.3408260    0.7053657 
H     2.8003119   -1.1258081   -0.6270088 
C     1.2385540   -1.8425748   -2.7353673 
O     1.4050610   -0.5902357   -3.3112233 
O     1.2490301   -2.9513757   -3.5736163 
H     0.2980967   -3.2031552   -3.7932363 
N     1.0978550   -3.3515628   -0.7533652 
H    -0.1933592   -1.7209046   -1.1619835 
H     0.6720101   -3.4486399    0.1985458 
H     0.5891645   -4.0349394   -1.3625761 
