24
Energy =
C     0.0941614    1.9062455    0.7234948 
C     0.2500837    2.8243526   -0.2576898 
C     0.9088498    2.4966668   -1.3929357 
C     0.6084860    0.6586006    0.5777716 
C     1.2865003    0.3253413   -0.5558556 
C     1.4253035    1.2505249   -1.5466445 
O    -0.2774835    4.1025617   -0.1044739 
H     0.3996598    4.7207005    0.3287143 
H     1.9446508    0.9989827   -2.4682912 
H     0.4629807   -0.0748527    1.3667164 
H    -0.4535202    2.1762648    1.6199204 
H     1.0108525    3.2380357   -2.1783168 
C     1.8405613   -1.0713465   -0.7335716 
C     0.7948486   -2.0198990   -1.3516744 
H     2.1841683   -1.4785929    0.2434957 
H     2.7465243   -1.0335662   -1.3806625 
C     1.4449646   -3.3134065   -1.8174975 
O     1.3056610   -3.7218506   -3.1357548 
O     2.1979203   -4.0879009   -0.9436820 
H     1.5765170   -4.6161437   -0.3497494 
N    -0.2929448   -2.2514573   -0.3826975 
H     0.3760432   -1.5422794   -2.2695735 
H    -1.0495398   -2.8139597   -0.8420137 
H     0.0589919   -2.8122675    0.4288998 
