24
Energy =
C    -0.0614884    1.9283724    0.7398576 
C    -0.2767054    2.7087652   -0.3440249 
C     0.2291536    2.3516234   -1.5468422 
C     0.6694867    0.7901585    0.6261569 
C     1.1906923    0.4290365   -0.5796580 
C     0.9611986    1.2147690   -1.6685465 
O    -1.0286432    3.8728549   -0.2240781 
H    -0.4332082    4.6626815   -0.0000686 
H     1.3589314    0.9364831   -2.6417473 
H     0.8281144    0.1660258    1.5023528 
H    -0.4852635    2.2198737    1.6949659 
H     0.0370988    2.9804606   -2.4097531 
C     1.9889569   -0.8485156   -0.7188139 
C     1.1335558   -2.0084478   -1.2709080 
H     2.4269300   -1.1442962    0.2613300 
H     2.8536613   -0.6571593   -1.3959363 
C     2.0299384   -3.1664424   -1.7003219 
O     2.3302696   -3.3232149   -3.0468794 
O     2.6010386   -4.0388121   -0.7757219 
H     2.2985931   -3.8180020    0.1621797 
N     0.1488926   -2.4212226   -0.2519190 
H     0.6083462   -1.6755244   -2.1986953 
H    -0.5726277   -1.6684021   -0.1480870 
H    -0.3779073   -3.2597643   -0.5992071 
