24
Energy =
C     1.3942767    2.5073876    0.0110655 
C     0.1036429    2.7143791    0.3570537 
C    -0.7622165    1.6664564    0.3781553 
C     1.8295102    1.2636738   -0.3136547 
C     0.9685675    0.2089058   -0.2908499 
C    -0.3309702    0.4183627    0.0609892 
O    -0.3050814    4.0109319    0.6876581 
H    -1.2949457    4.0959276    0.8915371 
H    -1.0391844   -0.4090575    0.0501070 
H     2.8701358    1.1251485   -0.5947759 
H     2.0737378    3.3526402   -0.0071718 
H    -1.8023076    1.8286597    0.6399911 
C     1.4519798   -1.1854944   -0.6486169 
C     0.8209740   -1.8081774   -1.9311439 
H     1.2511591   -1.8547798    0.2170206 
H     2.5620513   -1.1935006   -0.7407400 
C    -0.1978887   -0.9287254   -2.6601088 
O    -1.5468797   -1.2332064   -2.5368419 
O     0.1660989    0.2121877   -3.3711546 
H     1.1426402    0.4307921   -3.2573574 
N     1.8961139   -2.2909363   -2.8169115 
H     0.2247515   -2.6958786   -1.6091612 
H     1.4670105   -2.7950336   -3.6309972 
H     2.4162734   -1.4796682   -3.2257300 
