24
Energy =
C    -1.0649438    1.6456618   -0.3573401 
C    -0.3913553    2.7637742    0.0135715 
C     0.9567158    2.7755651   -0.0362056 
C    -0.3907149    0.5438238   -0.7753672 
C     0.9785649    0.5456295   -0.8292042 
C     1.6388377    1.6800883   -0.4525330 
O    -1.0590120    3.9125366    0.4502143 
H    -2.0699610    3.8295791    0.4508842 
H     2.7256231    1.7214381   -0.4826867 
H    -0.9886534   -0.3078789   -1.0552422 
H    -2.1491303    1.6292990   -0.3210050 
H     1.4836710    3.6759047    0.2614534 
C     1.8417464   -0.6348671   -1.2820636 
C     1.1659119   -1.9774494   -1.7233880 
H     2.5511868   -0.8532005   -0.4518022 
H     2.5061121   -0.2608048   -2.0940206 
C     1.4808516   -2.3284716   -3.1828793 
O     1.6777994   -1.3238697   -4.1231713 
O     1.3994616   -3.6424669   -3.6300357 
H     0.4285763   -3.8948177   -3.7369685 
N     1.6078927   -3.0363993   -0.7963305 
H     0.0658410   -1.9437048   -1.7001860 
H     1.1576945   -2.8804026    0.1364052 
H     1.2743370   -3.9733287   -1.1294180 
