24
Energy =
C    -1.1636175    1.4374542    0.4749105 
C    -0.6317278    2.6383446    0.1513480 
C     0.6362212    2.7022877   -0.3374558 
C    -0.4400434    0.3003199    0.3179254 
C     0.8322222    0.3607567   -0.1627052 
C     1.3643099    1.5678892   -0.4974434 
O    -1.4090046    3.7878773    0.3263281 
H    -0.9386351    4.6474618    0.0648359 
H     2.3736782    1.6332846   -0.8961873 
H    -0.8872201   -0.6598981    0.5683761 
H    -2.1778964    1.3983154    0.8571940 
H     1.0695821    3.6604018   -0.6038029 
C     1.6289337   -0.9098384   -0.3582380 
C     1.4616196   -1.6665887   -1.7269769 
H     1.3924378   -1.5910065    0.4925634 
H     2.7083454   -0.6811311   -0.2115163 
C     1.1259079   -3.1320532   -1.5069070 
O     1.9028869   -4.1234043   -2.0958709 
O     0.0570785   -3.5044721   -0.6994682 
H    -0.0164254   -4.5130167   -0.7171436 
N     0.4968506   -1.0704723   -2.6821345 
H     2.4685573   -1.6859852   -2.2077433 
H     0.0180738   -0.2028491   -2.3638190 
H     0.9837244   -0.8349781   -3.5783731 
