24
Energy =
C     0.2780096    2.5045427    0.0453524 
C     0.1234914    2.0164219    1.2969995 
C     0.5333168    0.7511649    1.5794002 
C     0.8348869    1.7398323   -0.9280637 
C     1.2447037    0.4712784   -0.6513122 
C     1.0938680   -0.0165329    0.6110146 
O    -0.4587066    2.8347328    2.2708880 
H    -0.5454637    2.3941878    3.1805399 
H     1.4120694   -1.0287792    0.8531288 
H     0.9488700    2.1511171   -1.9274586 
H    -0.0513372    3.5161165   -0.1657986 
H     0.4119012    0.3487131    2.5793296 
C     1.8601870   -0.3891653   -1.7359966 
C     0.8645531   -1.3832283   -2.3887570 
H     2.7144430   -0.9594503   -1.3020305 
H     2.3094846    0.2529645   -2.5259783 
C     0.3335807   -2.4305273   -1.4081823 
O     1.0675991   -3.5957606   -1.2259731 
O    -0.8034218   -2.2351367   -0.6239562 
H    -1.2465855   -1.3531973   -0.8204606 
N    -0.1988237   -0.6696871   -3.1236176 
H     1.4383261   -1.9969884   -3.1245076 
H    -0.6670910    0.0416515   -2.5158969 
H     0.2237937   -0.1434747   -3.9245717 
