24
Energy =
C     1.4930988    2.4351355    0.4984934 
C     0.2169319    2.8441328    0.2823824 
C    -0.5917634    2.1103092   -0.5117610 
C     1.9515395    1.2964455   -0.0790555 
C     1.1376324    0.5421606   -0.8760145 
C    -0.1398650    0.9703695   -1.0938482 
O    -0.2874069    4.0133216    0.8612031 
H     0.3764796    4.5041148    1.4505275 
H    -0.8277159    0.4212809   -1.7147841 
H     2.9800590    0.9970673    0.1065878 
H     2.1519193    3.0197025    1.1317784 
H    -1.6092366    2.4490315   -0.6754787 
C     1.7020707   -0.7168666   -1.5272676 
C     0.9027609   -2.0639478   -1.4548450 
H     2.7128331   -0.9216471   -1.1054158 
H     1.8927794   -0.4747065   -2.5963245 
C     0.2973570   -2.5762046   -0.1319811 
O     0.0018886   -3.9319567   -0.0527380 
O     0.0682245   -1.8156994    1.0156242 
H     0.2827511   -0.8476753    0.9158506 
N    -0.0382562   -2.1992467   -2.5855727 
H     1.6828882   -2.8489326   -1.6104870 
H    -0.4793674   -1.2964980   -2.8549835 
H     0.4716528   -2.5362319   -3.4368773 
