24
Energy =
C    -1.6106798    1.2090743   -1.8275637 
C    -1.2133180    2.1932766   -0.9717655 
C    -0.1703893    1.9724357   -0.1365786 
C    -0.9654874    0.0129357   -1.8423151 
C     0.0760764   -0.2004491   -0.9967360 
C     0.4685743    0.7742596   -0.1474850 
O    -1.8595527    3.4345250   -0.9321330 
H    -2.6146922    3.5269091   -1.6020500 
H     2.9582562    0.0650442    1.6727101 
H    -1.2870073   -0.7633189   -2.5307529 
H    -2.4426361    1.3779161   -2.5019421 
H     0.1576131    2.7619089    0.5277271 
C     0.8426677   -1.4941717   -0.9422497 
C     2.3301068   -1.3342050   -1.3519365 
H     0.3647969   -2.2634010   -1.5872252 
H     0.7889561   -1.8909513    0.0962686 
C     3.0244073   -0.0236341   -0.9337908 
O     4.1661056    0.3588123   -1.6282649 
O     2.5675457    0.8172113    0.1052515 
H     1.6550216    0.2879688    1.0414380 
N     3.0671482   -2.5135860   -0.8649500 
H     2.3638962   -1.3095146   -2.4671399 
H     2.7120400   -3.3678549   -1.3566504 
H     4.0762462   -2.4289910   -1.1436806 
