24
Energy =
C    -0.1347682    2.2082596   -1.5678086 
C    -0.1217862    2.7643025   -0.3350846 
C     0.5651929    2.1563912    0.6687720 
C     0.5306331    1.0499647   -1.8072443 
C     1.2179094    0.4358875   -0.8052928 
C     1.2324261    0.9979094    0.4351688 
O    -0.8209351    3.9579061   -0.1275892 
H    -0.7587742    4.3130067    0.8203847 
H     1.7785637    0.5271375    1.2488497 
H     0.5097680    0.6208386   -2.8058863 
H    -0.6846295    2.7037254   -2.3606843 
H     0.5832052    2.5956862    1.6603994 
C     1.9528796   -0.8598829   -1.0728835 
C     0.9858371   -2.0627487   -1.2246337 
H     2.6908871   -1.0815718   -0.2676956 
H     2.5555546   -0.7400627   -2.0020126 
C     1.7079822   -3.2741339   -1.7853774 
O     2.9813309   -3.6165764   -1.3406081 
O     1.1056404   -4.0500077   -2.7668472 
H     1.7231180   -4.8206304   -2.9868142 
N     0.3385849   -2.4036416    0.0598694 
H     0.2124741   -1.8093933   -1.9874882 
H     0.5778933   -1.7307714    0.8234720 
H    -0.7017933   -2.3731175   -0.0532265 
