24
Energy =
C     0.0523668    0.9445538    1.4533612 
C     0.0140889    2.2032379    0.9584809 
C     0.5610477    2.4727123   -0.2492377 
C     0.6519704   -0.0479370    0.7476045 
C     1.2231475    0.2201903   -0.4599110 
C     1.1640971    1.4860989   -0.9596719 
O    -0.5981940    3.2182874    1.6871123 
H     0.0705063    3.6785886    2.2944456 
H     1.5803501    1.7085443   -1.9388032 
H     0.6592438   -1.0582413    1.1486748 
H    -0.4105464    0.7374791    2.4123214 
H     0.4998131    3.4799457   -0.6465743 
C     1.8685591   -0.8887702   -1.2677184 
C     0.9229699   -1.5511850   -2.3295361 
H     2.2333759   -1.6803956   -0.5754362 
H     2.7985943   -0.4869462   -1.7215930 
C    -0.5232221   -1.0613715   -2.2784748 
O    -0.9130214    0.0902073   -2.9555728 
O    -1.4551381   -1.7369967   -1.5024142 
H    -2.3404233   -1.2511295   -1.5714157 
N     1.5042108   -1.5082401   -3.6975907 
H     0.8215711   -2.6262090   -2.0537171 
H     0.8698846   -1.0039771   -4.3650005 
H     2.4173100   -1.0034048   -3.7493641 
