24
Energy =
C     0.4319661    2.1209395    0.4145967 
C     1.2047927    2.9059493   -0.3823552 
C     2.0224860    2.3328375   -1.2949744 
C     0.4852366    0.7694133    0.2974256 
C     1.3104966    0.1920444   -0.6182408 
C     2.0772073    0.9820199   -1.4186334 
O     1.1763524    4.3007768   -0.2870487 
H     0.5356939    4.6590368    0.4123655 
H     2.7367639    0.5424741   -2.1622281 
H    -0.1550257    0.1405486    0.9162268 
H    -0.2340784    2.5745104    1.1398518 
H     2.6312907    2.9700892   -1.9278746 
C     1.3571268   -1.3176931   -0.7406066 
C     0.0922965   -1.9673003   -1.3887126 
H     1.5303771   -1.7231917    0.2826130 
H     2.2546204   -1.6294985   -1.3183671 
C    -0.4086054   -3.1485907   -0.5641433 
O    -0.8617152   -4.2970482   -1.2014560 
O    -0.4405046   -3.0902661    0.8256549 
H    -0.8453462   -3.9514123    1.1710508 
N    -0.9788319   -0.9748484   -1.6161953 
H     0.3916866   -2.4050330   -2.3706107 
H    -0.6924110   -0.3401717   -2.3990787 
H    -1.8403232   -1.4683178   -1.9562302 
