24
Energy =
C     1.3345443    2.3496920    0.8768539 
C     0.0298873    2.6445688    0.6943015 
C    -0.7230533    1.8677018   -0.1260451 
C     1.8931425    1.2848340    0.2491626 
C     1.1465239    0.4880175   -0.5689903 
C    -0.1697816    0.8022235   -0.7589701 
O    -0.5099108    3.7507010    1.3592319 
H    -1.4963710    3.9024566    1.1777629 
H    -0.8124900    0.2112040   -1.3896775 
H     2.9489262    1.0782159    0.4077600 
H     1.9276461    2.9801380    1.5306926 
H    -1.7723938    2.0965023   -0.2786666 
C     1.8573198   -0.6670864   -1.2735844 
C     1.0474080   -1.8620554   -1.8692492 
H     2.5992132   -1.1036077   -0.5650234 
H     2.4581249   -0.2204911   -2.0975483 
C     0.3886457   -2.8347286   -0.8775489 
O     0.3330027   -4.1790399   -1.2216209 
O    -0.1741313   -2.4549192    0.3402436 
H    -0.0677362   -1.4785357    0.5370836 
N     0.1694836   -1.4589496   -2.9885686 
H     1.8224844   -2.5226999   -2.3269463 
H    -0.8450216   -1.5543171   -2.7419778 
H     0.3512719   -0.4781395   -3.3089651 
