24
Energy =
C    -0.6884172    2.0923134   -0.5084320 
C     0.3333418    2.9642206   -0.6640174 
C     1.6158540    2.5165770   -0.5963922 
C    -0.4398615    0.7776674   -0.2807724 
C     0.8416852    0.3250802   -0.2066516 
C     1.8702532    1.2017975   -0.3711184 
O     0.0373395    4.3110659   -0.8946260 
H     0.8509829    4.9058646   -1.0047537 
H     2.9004061    0.8582572   -0.3247430 
H    -1.2662068    0.0741569   -0.1838446 
H    -1.7075317    2.4590947   -0.5760198 
H     2.4386337    3.2107579   -0.7245495 
C     1.1059085   -1.1461539    0.0458205 
C     0.8022034   -2.0885096   -1.1637209 
H     0.5130722   -1.4365915    0.9426492 
H     2.1627100   -1.2963894    0.3588573 
C    -0.0272674   -3.3053178   -0.7282970 
O    -1.1026987   -3.1391080    0.1391459 
O     0.2458278   -4.5855466   -1.2128481 
H     0.9899897   -4.5851843   -1.8936462 
N     0.1487628   -1.3614949   -2.2703507 
H     1.7799184   -2.4788150   -1.5288939 
H     0.8485100   -0.7273044   -2.7249373 
H    -0.1435384   -2.0395893   -3.0152628 
