24
Energy =
C    -0.5379286    2.1722212   -0.3671339 
C     0.4462839    3.0127896   -0.7604064 
C     1.7007009    2.5439232   -0.9553234 
C    -0.2662857    0.8590489   -0.1547210 
C     0.9958965    0.3812320   -0.3394611 
C     1.9793455    1.2311797   -0.7469015 
O     0.1653759    4.3573943   -0.9768247 
H     0.2974399    4.8933156   -0.1261827 
H     2.9905659    0.8685083   -0.9121100 
H    -1.0631964    0.1728191    0.1323123 
H    -1.5437814    2.5579936   -0.2377129 
H     2.4756358    3.2277199   -1.2856238 
C     1.2859597   -1.0864981   -0.0977766 
C     0.6848789   -2.0605693   -1.1598479 
H     0.9094708   -1.3307827    0.9217683 
H     2.3832493   -1.2582420   -0.0381824 
C    -0.0058711   -3.2405477   -0.4866973 
O     0.2601254   -4.5369038   -0.9107881 
O    -0.9133659   -3.0413010    0.5487126 
H    -1.2820490   -3.9419356    0.8259543 
N    -0.2233646   -1.3629520   -2.0943340 
H     1.5274629   -2.5055657   -1.7405959 
H     0.3473879   -0.7682861   -2.7413855 
H    -0.6955499   -2.0699362   -2.7092403 
