24
Energy =
C     0.6207346    2.5908279   -0.6268821 
C     0.3989853    2.3960292    0.6931741 
C     0.6113969    1.1785215    1.2422941 
C     1.0660530    1.5692345   -1.4022753 
C     1.2923696    0.3418268   -0.8550510 
C     1.0603044    0.1528174    0.4747460 
O    -0.0549954    3.4467121    1.4843722 
H     0.7244596    3.9627220    1.8767718 
H     1.2182831   -0.8218905    0.9304541 
H     1.2336288    1.7408711   -2.4622908 
H     0.4319639    3.5690243   -1.0562284 
H     0.4102556    1.0314383    2.2979423 
C     1.7787031   -0.8029708   -1.7216896 
C     0.6427327   -1.7418516   -2.2014824 
H     2.5379519   -1.3920176   -1.1596219 
H     2.3158767   -0.4042159   -2.6108194 
C     0.0184896   -2.5323063   -1.0461462 
O    -1.0881892   -2.0295754   -0.3705040 
O     0.6067813   -3.7073469   -0.5736446 
H     1.3950099   -3.9908916   -1.1356965 
N    -0.3629438   -1.0031404   -2.9857371 
H     1.0986968   -2.4949377   -2.8814212 
H    -0.8937010   -0.3442301   -2.3648082 
H     0.1051583   -0.4329886   -3.7278066 
