24
Energy =
C     0.5253019    2.4049237   -2.1883191 
C     0.1673754    3.0707027   -1.0577781 
C     0.3813665    2.5004996    0.1498627 
C     1.1010839    1.1789157   -2.1045246 
C     1.3312427    0.6105983   -0.8885223 
C     0.9570115    1.2752572    0.2394993 
O    -0.4199076    4.3389695   -1.1085699 
H    -0.5833571    4.6806158   -2.0495464 
H     1.1019426    0.8243643    1.2175977 
H     1.3623545    0.6489453   -3.0168581 
H     0.3450277    2.8476774   -3.1620007 
H     0.0772182    3.0339664    1.0437883 
C     1.9449146   -0.7732819   -0.7937398 
C     0.9157613   -1.9413981   -0.7806640 
H     2.5720279   -0.8328090    0.1232883 
H     2.6675149   -0.9090149   -1.6298334 
C    -0.5478142   -1.5009574   -0.8242144 
O    -1.1599329   -1.1980615   -2.0337803 
O    -1.2630377   -1.3393483    0.3548781 
H    -1.5743682   -2.2434802    0.6781062 
N     1.2512873   -2.8855317   -1.8625400 
H     1.0304574   -2.4737759    0.1915466 
H     0.6436931   -3.7354686   -1.7797954 
H     1.0063847   -2.4495434   -2.7856376 
