24
Energy =
C     1.5738435    2.5900709   -1.2361471 
C     1.6385627    2.7826828    0.1016980 
C     1.5685028    1.7247438    0.9422423 
C     1.4322894    1.3368493   -1.7390389 
C     1.3638748    0.2674866   -0.8984940 
C     1.4263869    0.4688855    0.4472782 
O     1.7822245    4.0688072    0.6129486 
H     0.8761281    4.4911453    0.7827647 
H     1.3636305   -0.3736872    1.1325741 
H     1.3723671    1.1956926   -2.8153686 
H     1.6383241    3.4470260   -1.8981410 
H     1.6302053    1.8928142    2.0119506 
C     1.1876132   -1.1295343   -1.4507534 
C    -0.2821840   -1.6438908   -1.6749286 
H     1.7468110   -1.8311819   -0.7872281 
H     1.7394615   -1.1994150   -2.4151383 
C    -0.4852024   -3.0159114   -1.0391286 
O    -0.9875570   -4.0664959   -1.7939467 
O    -0.1915365   -3.2259504    0.3030304 
H    -0.9597197   -2.8946018    0.8664300 
N    -1.3636347   -0.6855691   -1.3171518 
H    -0.3886140   -1.8462573   -2.7663311 
H    -2.0246538   -1.0841544   -0.6089498 
H    -1.0464671    0.2291805   -0.9338663 
