24
Energy =
C    -0.0863467    0.9938301    1.4182933 
C    -0.3757042    2.1669290    0.8091812 
C     0.0931895    2.4173241   -0.4348140 
C     0.6875204    0.0715446    0.7908442 
C     1.1798380    0.3251708   -0.4540337 
C     0.8703031    1.5019271   -1.0670586 
O    -1.1629508    3.1122308    1.4595523 
H    -0.5892482    3.7448861    2.0058235 
H     1.2252547    1.7041951   -2.0751464 
H     0.9026120   -0.8699607    1.2888379 
H    -0.4872573    0.7979123    2.4070484 
H    -0.1686690    3.3497862   -0.9230051 
C     2.0306140   -0.7044083   -1.1721154 
C     1.2558496   -1.5722647   -2.2238084 
H     2.4988021   -1.3845129   -0.4256716 
H     2.8954801   -0.1713412   -1.6202507 
C    -0.2532411   -1.2865847   -2.2926116 
O    -0.7366479   -0.2833588   -3.1268509 
O    -1.1595665   -1.9616195   -1.4703126 
H    -0.7021847   -2.6242314   -0.8641328 
N     1.8661454   -1.4793576   -3.5699770 
H     1.3379879   -2.6308465   -1.8853226 
H     2.7055551   -0.8593482   -3.6233395 
H     2.1623634   -2.4279869   -3.9011057 
