24
Energy =
C    -0.2186883    1.8037566    0.7878208 
C    -0.2101849    2.7057035   -0.2297859 
C     0.4813137    2.4323835   -1.3594671 
C     0.4641460    0.6366965    0.6706931 
C     1.1650143    0.3631207   -0.4644635 
C     1.1656469    1.2667556   -1.4824978 
O    -0.9038106    3.9168483   -0.1420334 
H    -1.3941417    4.0499245    0.7357920 
H     1.7126618    1.0637613   -2.4001745 
H     0.4408332   -0.0794235    1.4890610 
H    -0.7735796    2.0127700    1.6961180 
H     0.4778556    3.1596446   -2.1642428 
C     1.9135723   -0.9437526   -0.6083143 
C     1.1064065   -1.9920485   -1.4017722 
H     2.1688927   -1.3652401    0.3907042 
H     2.8873298   -0.7500852   -1.1134300 
C     1.9967151   -3.1605569   -1.7934213 
O     1.9137845   -3.6978885   -3.0700102 
O     2.8604025   -3.7356013   -0.8713133 
H     2.3337401   -4.4004345   -0.3236060 
N    -0.0411034   -2.4408818   -0.5913392 
H     0.7510265   -1.5443154   -2.3607294 
H    -0.7379231   -1.6612837   -0.5264196 
H    -0.5409648   -3.2082611   -1.1032047 
