24
Energy =
C    -1.1300076    0.9551443    0.3307672 
C    -1.0045208    2.1555706   -0.2800419 
C     0.1259799    2.4542850   -0.9599661 
C    -0.1265312    0.0444522    0.2567945 
C     1.0150201    0.3364401   -0.4281540 
C     1.1341801    1.5489670   -1.0381103 
O    -2.0355089    3.0862418   -0.2018213 
H    -2.6982101    2.9519949   -0.9580928 
H     2.0330471    1.8018890   -1.5961837 
H    -0.2415708   -0.9175640    0.7496201 
H    -2.0381990    0.7329069    0.8804610 
H     0.2158964    3.4225739   -1.4410724 
C     2.1260712   -0.6884875   -0.5277056 
C     1.8292697   -1.7648055   -1.6028500 
H     2.2494006   -1.1764005    0.4648308 
H     3.0992647   -0.1949161   -0.7548172 
C     1.7633882   -1.1789046   -3.0197228 
O     2.5444107   -0.0803854   -3.3613132 
O     0.9715761   -1.7653868   -4.0058135 
H     0.5879125   -2.6463365   -3.6972050 
N     2.7921846   -2.8872294   -1.4966981 
H     0.8144310   -2.1743007   -1.4000949 
H     3.3442366   -3.0014225   -2.3814366 
H     3.5050726   -2.7416854   -0.7421598 
