24
Energy =
C     0.4381189    2.2346655   -2.3737155 
C     0.0002680    2.9542660   -1.3148834 
C     0.2025792    2.4997244   -0.0568375 
C     1.0775821    1.0536866   -2.1777700 
C     1.2912190    0.5928378   -0.9138120 
C     0.8415441    1.3200279    0.1470593 
O    -0.6553934    4.1639979   -1.5196966 
H    -1.6554719    4.0172046   -1.6054954 
H     0.9779587    0.9548347    1.1617300 
H     1.4041914    0.4739486   -3.0372632 
H     0.2671455    2.6092334   -3.3772393 
H    -0.1565118    3.0847090    0.7829470 
C     1.9684431   -0.7451006   -0.6930396 
C     0.9976664   -1.9612903   -0.6445026 
H     2.5524402   -0.7096522    0.2531853 
H     2.7360604   -0.8984732   -1.4846941 
C    -0.4816087   -1.6057968   -0.7897894 
O    -1.2381626   -1.3089868    0.3372984 
O    -1.0762609   -1.5264871   -2.0434041 
H    -2.0451375   -1.2613872   -1.9209928 
N     1.4364211   -2.9610858   -1.6363476 
H     1.0783350   -2.4158283    0.3704407 
H     0.8591813   -3.8282059   -1.5204619 
H     1.2055913   -2.6025256   -2.5956075 
