24
Energy =
C     0.7941137    2.4751137   -1.4073025 
C    -0.4460003    2.6055681   -0.8650283 
C    -0.9416394    1.6183994   -0.0851537 
C     1.5310853    1.3617544   -1.1647071 
C     1.0353503    0.3695213   -0.3746882 
C    -0.2103406    0.5017729    0.1591153 
O    -1.2317665    3.7395650   -1.0931305 
H    -0.7958311    4.4290673   -1.6965535 
H    -0.6290267   -0.2839595    0.7828965 
H     2.5181693    1.2693273   -1.6137633 
H     1.1985356    3.2584881   -2.0395501 
H    -1.9336068    1.7341670    0.3376982 
C     1.8425816   -0.8860605   -0.1237901 
C     1.5007537   -2.0003747   -1.1320614 
H     1.6479080   -1.2580369    0.9072024 
H     2.9338216   -0.6643037   -0.1603748 
C     1.9444542   -1.6501993   -2.5561403 
O     3.1911052   -1.0714839   -2.7675319 
O     1.1444504   -1.9364230   -3.6626012 
H     0.2992999   -2.4263579   -3.4112378 
N     2.1075463   -3.2536245   -0.6545950 
H     0.3941012   -2.1251243   -1.1467753 
H     1.8051914   -4.0430434   -1.2745935 
H     3.1522710   -3.1948377   -0.7435100 
