24
Energy =
C     0.2249998    2.3149463    0.2637328 
C     0.0570047    2.9641952   -0.9109744 
C     0.4943969    2.3909866   -2.0642901 
C     0.8318671    1.1021340    0.2980610 
C     1.2773751    0.5263656   -0.8525586 
C     1.0991084    1.1763824   -2.0359307 
O    -0.5669127    4.2156887   -0.9057984 
H    -0.6695029    4.6314301   -1.8252657 
H     1.4363496    0.7268623   -2.9668902 
H     0.9440389    0.5881189    1.2495648 
H    -0.1382064    2.7754273    1.1762545 
H     0.3598786    2.9019507   -3.0119062 
C     1.9354121   -0.8392957   -0.8205307 
C     0.9381227   -2.0495957   -0.7746619 
H     2.5966653   -0.8906982    0.0735668 
H     2.6433034   -0.9108781   -1.6732851 
C    -0.5402949   -1.6664761   -0.7624637 
O    -1.1505228   -1.3334012    0.4411598 
O    -1.2756835   -1.5610908   -1.9363049 
H    -1.1095621   -0.6542440   -2.3396591 
N     1.2190840   -3.0366168   -1.8429906 
H     1.0774595   -2.5453884    0.2156004 
H     2.0022208   -2.7712938   -2.4817010 
H     1.4628266   -3.9650580   -1.4236165 
