24
Energy =
C    -0.2047127    2.1440155    0.0596844 
C     0.5235397    2.9586930   -0.7367823 
C     1.6008648    2.4746436   -1.3956690 
C     0.1351304    0.8371044    0.1905657 
C     1.2098186    0.3342775   -0.4822700 
C     1.9471689    1.1681876   -1.2702169 
O     0.1733856    4.2986195   -0.8677894 
H    -0.4533306    4.4314646   -1.6544273 
H     2.8213507    0.7988888   -1.7993478 
H    -0.4578406    0.2003404    0.8420319 
H    -1.0586676    2.5468030    0.5942184 
H     2.1856903    3.1444271   -2.0171991 
C     1.5876613   -1.1306552   -0.3430521 
C     0.7514925   -2.0778042   -1.2492102 
H     1.4659090   -1.4359619    0.7217211 
H     2.6683176   -1.2760618   -0.5663063 
C    -0.7471502   -2.0483212   -0.8749754 
O    -1.0740614   -2.2866435    0.4547549 
O    -1.8062457   -1.7914672   -1.7485597 
H    -1.5967026   -1.9646728   -2.7116798 
N     1.1267984   -1.9055040   -2.6782220 
H     1.0472725   -3.1143180   -0.9685857 
H     0.3317528   -1.8151590   -3.3394250 
H     1.7311304   -1.0694438   -2.8440109 
