24
Energy =
C     2.5679383    1.9775775   -0.8185238 
C     1.4910409    2.8094572   -0.8085771 
C     0.2610497    2.3130573   -0.5487038 
C     2.4183599    0.6546068   -0.5562701 
C     1.1862837    0.1497911   -0.2885684 
C     0.0820618    0.9736920   -0.3251375 
O     1.6242218    4.1806296   -1.0509822 
H     2.5740195    4.4752520   -1.2489812 
H    -1.0453856    0.4836605    0.0549575 
H     3.2907951    0.0069983   -0.5595940 
H     3.5562085    2.3727182   -1.0275762 
H    -0.5868650    2.9869423   -0.5297972 
C     0.9682170   -1.3248863   -0.0049713 
C     0.0131071   -1.9805882   -1.0452327 
H     0.5221017   -1.4214825    1.0093905 
H     1.9330297   -1.8767001    0.0244399 
C    -1.2494255   -1.1562892   -1.2843174 
O    -1.2293831    0.2331351   -1.0580454 
O    -2.3768679   -1.7294234   -1.8418465 
H    -2.2487075   -1.7580376   -2.8434589 
N     0.7309036   -2.2169003   -2.3098566 
H    -0.3449299   -2.9571372   -0.6464888 
H     1.0916314   -1.3059287   -2.6845436 
H     1.5570602   -2.8366445   -2.1398665 
