24
Energy =
C     2.1400463    2.3454874   -0.7971832 
C     1.0135102    3.0263018   -0.4845028 
C    -0.0853789    2.3589321   -0.0622819 
C     2.1694330    0.9926808   -0.6946116 
C     1.0672334    0.3147552   -0.2697621 
C    -0.0640475    1.0054778    0.0410400 
O     0.9862090    4.4137773   -0.5919804 
H     0.6583986    4.6968003   -1.5090774 
H    -0.9545805    0.4807582    0.3784320 
H     3.0779241    0.4569143   -0.9617488 
H     3.0156895    2.8917555   -1.1308533 
H    -0.9777784    2.9189105    0.1948602 
C     1.0865688   -1.1939014   -0.1796687 
C     0.5603537   -1.8548245   -1.4682755 
H     0.4638248   -1.5249787    0.6827774 
H     2.1170373   -1.5585821    0.0384650 
C     1.4757646   -1.5863736   -2.6677269 
O     2.5503749   -2.4302967   -2.9192812 
O     1.2818422   -0.4851165   -3.5015431 
H     0.5437841    0.1163928   -3.1686860 
N     0.3837633   -3.2938831   -1.2038681 
H    -0.4358781   -1.4211966   -1.7160184 
H     0.0278751   -3.7691271   -2.0684505 
H     1.3168995   -3.7307716   -1.0037225 
