24
Energy =
C    -0.3289436    1.9135843    0.4861820 
C     0.2018667    1.5053750    1.6606646 
C     1.2174619    0.6010868    1.6607717 
C     0.1504026    1.4321502   -0.6890615 
C     1.1744359    0.5360475   -0.6966171 
C     1.6998492    0.1163797    0.4881892 
O    -0.3143370    2.0301612    2.8496320 
H     0.1130471    1.6488566    3.6866379 
H     2.5012974   -0.6179122    0.5069491 
H    -0.3005989    1.7482773   -1.6256750 
H    -1.1489396    2.6234594    0.5020247 
H     1.6425393    0.2589717    2.5982738 
C     1.6992877   -0.0154968   -2.0091010 
C     0.7427571   -1.0467991   -2.6431169 
H     2.6976495   -0.4832536   -1.8591629 
H     1.8630507    0.8243267   -2.7198076 
C     0.3828982   -2.1650978   -1.6536635 
O    -0.8795414   -2.2153936   -1.0735531 
O     1.3191588   -3.1383144   -1.3002045 
H     2.2008025   -3.0036542   -1.7709849 
N    -0.4341524   -0.3342877   -3.1814449 
H     1.2757863   -1.5493675   -3.4834289 
H    -0.1812743    0.1088288   -4.0963930 
H    -1.2009018   -1.0203299   -3.3922603 
