24
Energy =
C     1.8155363    2.2209682   -2.0614795 
C     0.9610866    3.0109711   -1.3723297 
C     0.2690731    2.4963496   -0.3210714 
C     1.9871240    0.9216396   -1.7093964 
C     1.3011342    0.4017126   -0.6540284 
C     0.4375135    1.1980891    0.0361116 
O     0.8136054    4.3447292   -1.7647264 
H     0.1424410    4.8659560   -1.2108594 
H    -0.1281018    0.7975060    0.8746723 
H     2.6704029    0.2991707   -2.2820400 
H     2.3575247    2.6420691   -2.9016645 
H    -0.4228394    3.1202571    0.2347223 
C     1.4793694   -1.0529743   -0.2661187 
C     0.4563937   -1.9887098   -0.9408743 
H     1.4004226   -1.1590482    0.8394370 
H     2.5032700   -1.3944424   -0.5352224 
C    -0.9793303   -1.6482425   -0.5577585 
O    -1.9065569   -1.2486232   -1.5134447 
O    -1.3740369   -1.7231510    0.7710033 
H    -2.3589904   -1.4948859    0.8260753 
N     0.6940010   -2.0111178   -2.3973561 
H     0.6256617   -3.0122664   -0.5349390 
H     0.1118001   -2.7748788   -2.8177495 
H     0.3216768   -1.1266667   -2.8216757 
