24
Energy =
C    -0.7446907    1.3589948    0.9066831 
C    -0.4349955    2.5180496    0.2814003 
C     0.6194228    2.5699839   -0.5644866 
C    -0.0041986    0.2436460    0.6821446 
C     1.0583253    0.2881315   -0.1694888 
C     1.3648182    1.4590499   -0.7944505 
O    -1.1966744    3.6589101    0.5140275 
H    -1.9635124    3.7194693   -0.1467484 
H     2.2079357    1.5149083   -1.4789630 
H    -0.2681069   -0.6808868    1.1893819 
H    -1.5870141    1.3344123    1.5897946 
H     0.8617665    3.5085532   -1.0513593 
C     1.8809543   -0.9526227   -0.4359503 
C     1.5238082   -1.6123642   -1.7909940 
H     1.7605929   -1.6931768    0.3872888 
H     2.9599203   -0.6735980   -0.4274886 
C     2.5252872   -2.6963422   -2.1515081 
O     2.8614208   -3.6794092   -1.2282916 
O     3.1113730   -2.7169657   -3.4095763 
H     2.4770102   -3.1721284   -4.0508985 
N     0.1537014   -2.1526083   -1.7665638 
H     1.6003684   -0.8517620   -2.6021867 
H     0.0363538   -2.8003885   -0.9506612 
H    -0.5345132   -1.3713690   -1.6565977 
