24
Energy =
C    -0.3296130    1.7975467    0.5671255 
C     0.1917066    2.8075479   -0.1654284 
C     1.1981491    2.5510002   -1.0431455 
C     0.1451577    0.5337719    0.4323727 
C     1.1584591    0.2724149   -0.4389011 
C     1.6785739    1.2893020   -1.1805539 
O    -0.3253716    4.0961694    0.0025532 
H     0.1074096    4.7944120   -0.5928345 
H     2.4775555    1.1001570   -1.8946288 
H    -0.2924147   -0.2654870    1.0247649 
H    -1.1348730    2.0142880    1.2602753 
H     1.6189403    3.3527180   -1.6407290 
C     1.6720008   -1.1419320   -0.6069334 
C     0.8124908   -1.9450875   -1.6124777 
H     1.6688169   -1.6489112    0.3830273 
H     2.7353032   -1.1314097   -0.9412597 
C     0.9309734   -1.4028374   -3.0398381 
O     2.1692382   -0.9851268   -3.5177983 
O    -0.1680379   -1.3508109   -3.8973279 
H    -0.9787774   -1.7994794   -3.4982917 
N     1.1851352   -3.3682590   -1.5587001 
H    -0.2569170   -1.8498973   -1.3161054 
H     2.1970166   -3.4840257   -1.8126130 
H     1.0529222   -3.7434097   -0.5899227 
