24
Energy =
C     1.8039647    2.4110463   -1.8542667 
C     0.5691045    2.6860131   -2.3199592 
C    -0.4297904    1.7976985   -2.1431636 
C     2.0413346    1.2466779   -1.2008453 
C     1.0432607    0.3297185   -1.0031343 
C    -0.2035936    0.6283259   -1.4904833 
O     0.3275363    3.8801800   -2.9905101 
H     0.0392222    4.6043362   -2.3415080 
H    -1.0492598   -0.0199928   -1.3945059 
H     3.0480184    1.0538445   -0.8356085 
H     2.6016930    3.1296510   -2.0123790 
H    -1.4150804    2.0293510   -2.5342702 
C     1.4517434   -0.9445897   -0.2429761 
C     0.5221509   -2.1655184    0.0992440 
H     1.9074349   -0.5861184    0.7092299 
H     2.3119946   -1.3662052   -0.8100772 
C     0.4613275   -2.4193368    1.6009314 
O     0.9137654   -3.6229909    2.1259170 
O    -0.0357309   -1.4493848    2.4614742 
H    -0.0005462   -1.8086385    3.4072649 
N    -0.8185704   -2.1017910   -0.5004932 
H     1.0305227   -3.0732142   -0.3066365 
H    -1.2081571   -3.0734280   -0.5595298 
H    -1.4582441   -1.5914169    0.1583058 
