24
Energy =
C     2.3289897    2.2591400    0.4027206 
C     1.2589023    3.0662858    0.2045157 
C     0.1537071    2.5693945   -0.3863930 
C     2.2856759    0.9625332    0.0092180 
C     1.1714526    0.4383821   -0.5896656 
C     0.1015399    1.2720029   -0.7840481 
O     1.2683346    4.4092024    0.5960935 
H     2.1313717    4.7051845    1.0392198 
H    -0.8143260    0.9682117   -1.2452648 
H     3.1617895    0.3405576    0.1815180 
H     3.2239853    2.6479374    0.8765556 
H    -0.6947784    3.2279217   -0.5384077 
C     1.2668404   -1.0466515   -0.9882141 
C     0.1327049   -1.9253514   -1.6477399 
H     1.6118175   -1.5619616   -0.0641346 
H     2.1435423   -1.1147585   -1.6705790 
C    -0.2006570   -3.2010738   -0.8546019 
O     0.7500466   -3.7632670   -0.0099214 
O    -1.3840179   -3.9106465   -1.0619495 
H    -1.9703229   -3.4703772   -1.7540676 
N    -1.0699260   -1.1654540   -1.9966298 
H     0.5518617   -2.3423383   -2.5925651 
H    -1.8385928   -1.0906757   -1.2871112 
H    -1.1458078   -0.7589528   -2.9601327 
