24
Energy =
C     1.4223858    2.7226513   -0.1131500 
C     0.2721325    3.0020444   -0.7636336 
C    -0.4796148    1.9988970   -1.2666083 
C     1.8315410    1.4365082    0.0270497 
C     1.0925753    0.4116317   -0.4898291 
C    -0.0795287    0.7088073   -1.1310788 
O    -0.1447933    4.3217752   -0.9050095 
H     0.2178821    4.7229697   -1.7629131 
H    -0.7170456   -0.0601808   -1.5459934 
H     2.7574451    1.2355593    0.5617663 
H     2.0078895    3.5372684    0.3000914 
H    -1.4089736    2.2384259   -1.7724014 
C     1.5963965   -1.0123922   -0.2700197 
C     0.9730363   -2.1286430   -1.1542340 
H     1.4460064   -1.2796795    0.8001696 
H     2.7007821   -0.9988038   -0.4202925 
C     2.0001689   -3.2204755   -1.4619576 
O     1.6722833   -4.5659952   -1.3549699 
O     3.2504365   -2.8784307   -1.9645056 
H     3.1607305   -2.6411870   -2.9416580 
N    -0.2066406   -2.6767862   -0.4567970 
H     0.6849453   -1.7285770   -2.1510672 
H    -0.9561483   -1.9544960   -0.3700641 
H    -0.6142927   -3.4660137   -1.0156599 
