24
Energy =
C    -0.7561936    1.5182448    0.5526541 
C    -0.0314918    2.5999020    0.1855778 
C     1.1518598    2.4378258   -0.4494738 
C    -0.2938348    0.2681507    0.2958047 
C     0.9050804    0.0964981   -0.3285149 
C     1.6229306    1.1910377   -0.7065402 
O    -0.5086271    3.8793032    0.4534047 
H    -0.2060593    4.1910478    1.3695373 
H     2.5722104    1.0783939   -1.2264036 
H    -0.8903961   -0.5917514    0.5888982 
H    -1.7113143    1.6642599    1.0452391 
H     1.7136828    3.3134955   -0.7568198 
C     1.4126699   -1.2966754   -0.6334858 
C     0.8407174   -1.8423750   -1.9577106 
H     1.1418762   -1.9786029    0.2015823 
H     2.5264900   -1.3103875   -0.6818500 
C     1.3497393   -1.0519788   -3.1591342 
O     2.6849501   -0.6763198   -3.2542937 
O     0.4871901   -0.7417663   -4.2021883 
H     0.3733150   -1.5577101   -4.7846520 
N     1.1901353   -3.2697341   -2.0608274 
H    -0.2690035   -1.7278736   -1.9551085 
H     0.6644228   -3.8091268   -1.3329678 
H     0.8643494   -3.6448197   -2.9835892 
