24
Energy =
C    -0.9335570    1.6403891    0.0436198 
C    -0.2010979    2.7451441   -0.2228249 
C     1.1067285    2.6162097   -0.5716971 
C    -0.3722467    0.4078384   -0.0348660 
C     0.9374445    0.2713118   -0.3839867 
C     1.6739565    1.3857797   -0.6497777 
O    -0.8157525    3.9978496   -0.1289458 
H    -0.2050539    4.7736740   -0.3614916 
H     2.7166840    1.2995650   -0.9449261 
H    -0.9772717   -0.4678446    0.1836645 
H    -1.9758756    1.7560983    0.3196325 
H     1.7015763    3.4956163   -0.7938760 
C     1.5632232   -1.1072266   -0.4653012 
C     1.1128457   -1.9038794   -1.7209837 
H     1.2739906   -1.6601506    0.4552008 
H     2.6746199   -1.0421673   -0.4534196 
C     1.7458886   -1.3818881   -3.0109185 
O     2.1580543   -2.2594663   -4.0093795 
O     1.8429060   -0.0163891   -3.2532800 
H     2.2414032    0.1224115   -4.1729258 
N     1.4053460   -3.3438822   -1.5420709 
H     0.0165847   -1.7661290   -1.8634145 
H     1.8503546   -3.5747701   -0.6234728 
H     0.5235450   -3.9031784   -1.6183676 
