24
Energy =
C    -0.0171196    0.9975804    1.4846283 
C    -0.2676786    2.1887780    0.8933878 
C     0.2079683    2.4423436   -0.3471686 
C     0.7048652    0.0505750    0.8325922 
C     1.1871211    0.2991918   -0.4171708 
C     0.9330430    1.5022300   -1.0037455 
O    -1.0095595    3.1554037    1.5644171 
H    -1.9993167    3.0450092    1.3701880 
H     1.2917084    1.7073543   -2.0099000 
H     0.8921189   -0.9038759    1.3178159 
H    -0.3988724    0.8111363    2.4829905 
H    -0.0017717    3.4001421   -0.8107924 
C     1.9730110   -0.7589955   -1.1653525 
C     1.1440557   -1.5571188   -2.2328071 
H     2.4066801   -1.4826352   -0.4389371 
H     2.8644049   -0.2646612   -1.6064709 
C    -0.3424175   -1.2081008   -2.2853863 
O    -0.7924299   -0.0876304   -2.9754060 
O    -1.2592810   -1.9660688   -1.5658464 
H    -1.2225644   -1.6889037   -0.5969833 
N     1.7482525   -1.4637761   -3.5820774 
H     1.1470765   -2.6267250   -1.9144048 
H     2.6196028   -0.8886471   -3.6265816 
H     1.9896289   -2.4188029   -3.9383532 
