24
Energy =
C    -0.0841614    2.3023954   -1.4796809 
C    -1.1350126    2.1306807   -0.6460268 
C    -1.1138770    1.1186551    0.2622441 
C     0.9904578    1.4760285   -1.4110799 
C     1.0202016    0.4666754   -0.4977499 
C    -0.0429538    0.2879236    0.3335821 
O    -2.2217712    3.0054642   -0.7442094 
H    -2.9730812    2.8046028   -0.0933920 
H    -0.0436556   -0.5204810    1.0603917 
H     1.8219644    1.6214866   -2.0989246 
H    -0.1179532    3.1074346   -2.2061338 
H    -1.9543246    0.9700250    0.9317117 
C     2.2041631   -0.4738792   -0.4330837 
C     1.9996803   -1.7135435   -1.3369873 
H     2.3593965   -0.7969190    0.6199851 
H     3.1378034    0.0576113   -0.7297789 
C     1.9473388   -1.3547577   -2.8150646 
O     2.8057687   -0.3986556   -3.3463734 
O     1.0868495   -2.0304925   -3.6663237 
H     1.5182839   -2.9101299   -3.9093068 
N     3.0589557   -2.7027080   -1.0745691 
H     1.0107680   -2.1747546   -1.1079776 
H     3.9974172   -2.2703719   -1.2578045 
H     3.0380225   -2.9913509   -0.0679399 
