24
Energy =
C     0.3332663    2.2172541    0.6154324 
C     0.0538939    2.9512271   -0.4862170 
C     0.3840999    2.4853874   -1.7124751 
C     0.9432681    1.0109559    0.4940085 
C     1.2874625    0.5388272   -0.7370292 
C     0.9945219    1.2800201   -1.8420393 
O    -0.5707462    4.1869940   -0.3578494 
H    -1.5792997    4.0803371   -0.3801098 
H     1.2305985    0.9026683   -2.8346121 
H     1.1421975    0.4207221    1.3846921 
H     0.0598844    2.6013500    1.5923995 
H     0.1483490    3.0817732   -2.5875277 
C     1.9343688   -0.8248555   -0.8837609 
C     0.9347880   -1.9977381   -1.1076740 
H     2.5522647   -1.0416057    0.0152880 
H     2.6627892   -0.7808088   -1.7248074 
C    -0.5357245   -1.5806081   -1.0819032 
O    -1.1889187   -1.1647070   -2.2375352 
O    -1.2240193   -1.5593612    0.1248054 
H    -2.1712223   -1.2501357   -0.0525190 
N     1.2984139   -2.6987795   -2.3546179 
H     1.0369243   -2.7067737   -0.2530995 
H     2.1600650   -3.2696903   -2.1877586 
H     0.5409508   -3.3759088   -2.6159523 
