24
Energy =
C     0.6315781    1.6382611    1.1897892 
C     0.6243896    2.7362643    0.3873821 
C     0.9701847    2.6151001   -0.9144118 
C     0.9906673    0.4293135    0.6884172 
C     1.3533255    0.3092150   -0.6189085 
C     1.3312438    1.4093899   -1.4204579 
O     0.2675395    3.9980092    0.8740777 
H    -0.0153895    3.9994845    1.8482295 
H     1.5840117    1.3256112   -2.4736522 
H     0.9731031   -0.4430814    1.3369247 
H     0.3434928    1.7228713    2.2321459 
H     0.9445667    3.4945503   -1.5480917 
C     1.7241351   -1.0455720   -1.1913301 
C     0.5210132   -1.8413371   -1.8075522 
H     2.1846780   -1.6632645   -0.3876723 
H     2.5515480   -0.9014093   -1.9173337 
C    -0.8473729   -1.1828314   -1.5929589 
O    -1.6428277   -1.5943545   -0.5314737 
O    -1.2640129   -0.0980149   -2.3595966 
H    -1.5558355   -0.4151907   -3.2703780 
N     0.7808131   -2.2429605   -3.2149857 
H     0.4326244   -2.7867756   -1.2236652 
H     0.0496148   -1.8871935   -3.8717944 
H     1.6956758   -1.9032439   -3.5896802 
