24
Energy =
C     1.3357521    2.5267253   -0.9067556 
C     0.1443652    2.8407939   -0.3479539 
C    -0.6129315    1.8740365    0.2192425 
C     1.7813104    1.2446773   -0.8874112 
C     1.0300544    0.2674637   -0.3069417 
C    -0.1760045    0.5891828    0.2393433 
O    -0.3078573    4.1565355   -0.3655349 
H    -0.0159379    4.6481771    0.4719135 
H    -0.7982770   -0.1791331    0.6911531 
H     2.7371978    1.0066869   -1.3495408 
H     1.9246860    3.3077659   -1.3760498 
H    -1.5734545    2.1380174    0.6480167 
C     1.5077231   -1.1692283   -0.3060010 
C     0.9507042   -1.9618690   -1.5140268 
H     1.1852280   -1.6573490    0.6406523 
H     2.6216764   -1.2082258   -0.3137802 
C     1.4662019   -1.3989450   -2.8462133 
O     2.8258809   -1.1529133   -3.0034565 
O     0.6168079   -1.1727124   -3.9292808 
H    -0.3324296   -1.4550832   -3.7374975 
N     1.2353624   -3.4095898   -1.3625217 
H    -0.1550640   -1.8386644   -1.5139084 
H     1.8274803   -3.7688876   -2.1517424 
H     1.7724819   -3.6277519   -0.4902103 
