24
Energy =
C    -1.2275592    1.0319395    0.0872706 
C    -0.7585957    1.9198319    0.9902114 
C     0.5718178    2.1120906    1.1185397 
C    -0.3675977    0.3365970   -0.7001932 
C     0.9833298    0.5137163   -0.5762012 
C     1.4394214    1.4196357    0.3381351 
O    -1.6452530    2.6331359    1.7908591 
H    -1.9013549    3.5094262    1.3497883 
H     2.5057533    1.5967143    0.4559222 
H    -0.7932479   -0.3608738   -1.4071368 
H    -2.2984817    0.8795509    0.0026540 
H     0.9346223    2.8227646    1.8533530 
C     2.0200539   -0.2055773   -1.4391214 
C     1.6133128   -1.5091664   -2.1821919 
H     2.8662581   -0.4848851   -0.7690018 
H     2.4275456    0.5208797   -2.1746447 
C     0.8571033   -2.4980594   -1.3072769 
O    -0.4595346   -2.8588140   -1.5784006 
O     1.4935483   -3.0469336   -0.2003655 
H     0.8486751   -3.6731621    0.2652337 
N     0.9470809   -1.2157791   -3.4657711 
H     2.5530780   -2.0592180   -2.4191857 
H     0.1785664   -0.5196453   -3.3478042 
H     1.6371167   -0.7905534   -4.1283305 
