24
Energy =
C     1.2428090    2.7044606   -0.9762614 
C     0.5046823    2.8560775    0.1475385 
C     0.1363474    1.7715817    0.8673905 
C     1.6241618    1.4657345   -1.3801204 
C     1.2682208    0.3695129   -0.6529864 
C     0.5159439    0.5298909    0.4715651 
O     0.1145964    4.1271246    0.5564464 
H     0.8085201    4.5340815    1.1738410 
H     0.2013765   -0.3379873    1.0471492 
H     2.2101889    1.3585663   -2.2889133 
H     1.5182135    3.5818763   -1.5517191 
H    -0.4719631    1.9063820    1.7553836 
C     1.6742425   -1.0211320   -1.1013588 
C     0.5440685   -1.8433151   -1.8068598 
H     2.0681755   -1.5532696   -0.2063906 
H     2.5481940   -0.9566218   -1.7864015 
C     0.3090757   -3.2016523   -1.1362256 
O     1.3383710   -3.8434840   -0.4577363 
O    -0.8794643   -3.8949911   -1.3338373 
H    -0.8729523   -4.3031313   -2.2565099 
N    -0.7011420   -1.0547748   -1.9105468 
H     0.8931610   -2.0902383   -2.8353237 
H    -0.5645608   -0.2921610   -2.6147568 
H    -1.4792995   -1.6514434   -2.2809405 
