24
Energy =
C     0.8312336    2.2857188    0.2436496 
C     1.6465499    2.7559303   -0.7375745 
C     2.2553140    1.8855738   -1.5744988 
C     0.6319798    0.9508921    0.3833822 
C     1.2475132    0.0716240   -0.4560786 
C     2.0598731    0.5496921   -1.4387593 
O     1.8762482    4.1252956   -0.9072311 
H     1.3714877    4.7126878   -0.2522759 
H     2.5484585   -0.1336737   -2.1279906 
H    -0.0281404    0.5917707    1.1691448 
H     0.3341330    2.9752366    0.9172836 
H     2.8974058    2.2728373   -2.3579858 
C     1.0164973   -1.4212584   -0.3118659 
C    -0.0477395   -1.9589823   -1.2940074 
H     0.7123743   -1.6648580    0.7309801 
H     1.9748689   -1.9583021   -0.4818969 
C    -1.4139986   -1.2987452   -1.0914963 
O    -1.8728843   -1.0190049    0.1931019 
O    -2.2720125   -1.0887536   -2.1663048 
H    -3.1265366   -0.6684249   -1.8261524 
N     0.4694460   -1.8270290   -2.6709854 
H    -0.2186754   -3.0359355   -1.0655918 
H     1.1885302   -2.5682617   -2.8402078 
H    -0.3030379   -2.0088477   -3.3584295 
