24
Energy =
C    -0.2030384    1.9755256    0.4291194 
C     0.0666262    2.8205914   -0.6017266 
C     0.9312452    2.4398407   -1.5691775 
C     0.3953111    0.7587186    0.4884463 
C     1.2745162    0.3793934   -0.4792381 
C     1.5337734    1.2251431   -1.5142078 
O    -0.5299487    4.0825249   -0.6911104 
H    -1.1773360    4.2870808    0.0622072 
H     2.2158577    0.9310951   -2.3093712 
H     0.1640672    0.0911125    1.3148641 
H    -0.8997029    2.2700112    1.2065182 
H     1.1297278    3.1191488   -2.3908874 
C     1.9245304   -0.9863128   -0.4258729 
C     1.0500058   -2.0682852   -1.1036609 
H     2.1061028   -1.2644133    0.6360342 
H     2.9225995   -0.9603595   -0.9217551 
C     0.8580795   -1.7786278   -2.5870359 
O    -0.4186930   -1.6449034   -3.1167660 
O     1.9580786   -1.6448211   -3.4261402 
H     1.6235948   -1.4852804   -4.3685082 
N     1.6090283   -3.4208697   -0.8541056 
H     0.0255035   -2.0302090   -0.6650732 
H     1.8680945   -3.8930202   -1.7555207 
H     2.4922589   -3.3941637   -0.2928275 
