24
Energy =
C     0.4112062    1.2792515    1.3815013 
C     0.0254800    2.3877987    0.7094181 
C     0.2619295    2.4911709   -0.6183544 
C     1.0321029    0.2657908    0.7258974 
C     1.2760831    0.3624033   -0.6120778 
C     0.8817928    1.4819370   -1.2812160 
O    -0.6107233    3.4240985    1.3850056 
H    -1.6166656    3.2946413    1.3669648 
H     1.0514020    1.5708418   -2.3507839 
H     1.3201467   -0.6270848    1.2772019 
H     0.2139862    1.2089048    2.4459276 
H    -0.0519823    3.3860879   -1.1443664 
C     1.9472115   -0.7770507   -1.3545951 
C     0.9309955   -1.8034408   -1.8996048 
H     2.6681668   -1.2900222   -0.6787459 
H     2.5504449   -0.3751209   -2.1977130 
C     0.1722407   -2.4879608   -0.7627278 
O    -1.2131645   -2.5857386   -0.7726701 
O     0.8773999   -3.0851184    0.2771543 
H     1.2630469   -3.9606159   -0.0458937 
N     0.0444548   -1.1369154   -2.8709190 
H     1.4953079   -2.6119250   -2.4169128 
H     0.5828678   -0.9378393   -3.7457990 
H    -0.7324712   -1.7867083   -3.1439149 
