24
Energy =
C     2.1663764    2.3882709   -1.1827115 
C     0.9547529    2.9859057   -1.2730054 
C    -0.1589662    2.3285021   -0.8792871 
C     2.2772677    1.1276463   -0.6916544 
C     1.1653842    0.4554578   -0.2935681 
C    -0.0759655    1.0374409   -0.4271792 
O     0.8571741    4.2868507   -1.7575805 
H     0.7533134    4.2806886   -2.7664439 
H    -1.0793884    0.4059012    0.0686151 
H     3.2574216    0.6654142   -0.6201363 
H     3.0484483    2.9351759   -1.4969986 
H    -1.1201400    2.8247579   -0.9361000 
C     1.2290121   -0.9562915    0.2550677 
C     0.4402517   -1.9565690   -0.6309414 
H     0.7979192   -0.9532435    1.2800416 
H     2.2835224   -1.2938329    0.3533720 
C    -0.9522127   -1.4334629   -1.0265569 
O    -1.2200077   -0.0501088   -0.9846633 
O    -1.9406908   -2.2863279   -1.5091098 
H    -1.6349952   -3.2468634   -1.5419987 
N     1.2597200   -2.2663642   -1.8159454 
H     0.2671743   -2.8850901   -0.0399042 
H     2.0309962   -2.9200106   -1.5453846 
H     0.6837894   -2.7612948   -2.5386421 
