24
Energy =
C     0.6461493    1.7603219    1.2255719 
C     1.4695780    2.6836124    0.6794076 
C     2.2493256    2.3439623   -0.3816503 
C     0.5945496    0.5015223    0.7219597 
C     1.3748093    0.1563126   -0.3385399 
C     2.2013125    1.0857421   -0.8901104 
O     1.4933809    3.9713954    1.2260682 
H     2.1360719    4.6094719    0.7703487 
H     2.8289395    0.8263423   -1.7394575 
H    -0.0763107   -0.2251139    1.1728035 
H     0.0276038    2.0411548    2.0713522 
H     2.9107009    3.0803483   -0.8231786 
C     1.3115432   -1.2399625   -0.9153595 
C     0.4601025   -1.3043017   -2.2122564 
H     0.9124337   -1.9609673   -0.1660304 
H     2.3517286   -1.5827776   -1.1248278 
C     0.5933007   -2.6445864   -2.9422784 
O     1.5068729   -3.5973272   -2.5026221 
O    -0.1448362   -2.9129679   -4.0942906 
H    -0.8122997   -2.1772665   -4.2804631 
N    -0.9512335   -1.0020541   -1.9118317 
H     0.8464238   -0.5533722   -2.9386074 
H    -1.2966448   -1.6245234   -1.1423535 
H    -1.0403587   -0.0128724   -1.5789415 
