24
Energy =
C    -1.2125588    1.3751714    0.3586352 
C    -0.7633907    2.5831120   -0.0757216 
C     0.4980815    2.6959637   -0.5511748 
C    -0.3986357    0.2899485    0.3170712 
C     0.8738273    0.4053252   -0.1541008 
C     1.3164628    1.6138447   -0.5958763 
O    -1.5764887    3.7206162   -0.0489661 
H    -2.5046667    3.5572487    0.3259675 
H     2.3244810    1.7221775   -0.9885341 
H    -0.7722434   -0.6748313    0.6551996 
H    -2.2242727    1.2738466    0.7363454 
H     0.8423028    3.6645872   -0.8975667 
C     1.7715218   -0.8101366   -0.2216537 
C     1.7152228   -1.6817872   -1.5284966 
H     1.5618161   -1.4401803    0.6751188 
H     2.8240473   -0.4837879   -0.0625398 
C     1.4816713   -3.1435782   -1.1887123 
O     2.4716355   -4.0869694   -1.4290570 
O     0.2863355   -3.5490719   -0.6104878 
H    -0.3744681   -3.7142529   -1.3553286 
N     0.7398373   -1.2448456   -2.5572582 
H     2.7375583   -1.6567308   -1.9763978 
H     0.1825708   -0.3971083   -2.3216516 
H     1.2443703   -1.0249413   -3.4484157 
