24
Energy =
C     2.2904217    2.2449233   -1.1736403 
C     1.1221429    2.9284019   -1.1583483 
C    -0.0128813    2.3158060   -0.7292673 
C     2.3462990    0.9555209   -0.7537923 
C     1.2186669    0.3355091   -0.3215932 
C     0.0134776    0.9991691   -0.3483566 
O     1.1201321    4.2628133   -1.5788466 
H     0.2028965    4.6957702   -1.5655362 
H    -0.9930754    0.4002161    0.1827580 
H     3.2970417    0.4304112   -0.7626722 
H     3.1855920    2.7506599   -1.5186978 
H    -0.9501701    2.8583366   -0.6951810 
C     1.2221314   -1.1013585    0.1574956 
C     0.2974352   -2.0093261   -0.7083002 
H     0.8594128   -1.1131776    1.2092307 
H     2.2545680   -1.5135456    0.1841961 
C    -1.0602481   -1.3689500   -1.0403800 
O    -1.2374662    0.0214237   -0.8820200 
O    -2.0977805   -2.1108346   -1.5947435 
H    -1.7995177   -3.0488298   -1.8215564 
N     0.9982689   -2.4073420   -1.9399336 
H     0.0596526   -2.9257303   -0.1225787 
H     1.2386832   -1.5496067   -2.4945484 
H     1.8960765   -2.8908042   -1.7037855 
