24
Energy =
C     1.7122059    2.6731321   -0.1428563 
C     0.3957888    2.9741186   -0.1752101 
C    -0.5151566    1.9964459   -0.3735917 
C     2.1230650    1.3922356   -0.3211199 
C     1.2162120    0.3961860   -0.5420290 
C    -0.1129995    0.7120863   -0.5521996 
O    -0.0227261    4.2883139    0.0083190 
H    -0.0804301    4.7734437   -0.8803821 
H    -0.8737391   -0.0381956   -0.7012243 
H     3.1872849    1.1711769   -0.2815076 
H     2.4322428    3.4648890    0.0346321 
H    -1.5696597    2.2509582   -0.3802797 
C     1.7366681   -1.0272509   -0.7010910 
C     0.8045987   -2.0438620   -1.4293284 
H     2.0316791   -1.4211405    0.2965627 
H     2.6888125   -0.9656176   -1.2786875 
C     1.6171894   -3.1381439   -2.0982043 
O     2.5600594   -3.8645146   -1.3773693 
O     1.4531493   -3.3969724   -3.4530047 
H     2.0596524   -4.1654817   -3.7086053 
N    -0.1776525   -2.6464852   -0.5012658 
H     0.2834881   -1.5374876   -2.2757853 
H     0.1116782   -2.5745082    0.5025154 
H    -1.1246938   -2.2196983   -0.6122940 
