24
Energy =
C     0.4837450    2.6933831   -0.8904501 
C    -0.6500898    2.6934690   -0.1528524 
C    -1.0144656    1.5835712    0.5294111 
C     1.2563971    1.5791242   -0.9522553 
C     0.8983924    0.4584611   -0.2655319 
C    -0.2473400    0.4646516    0.4720870 
O    -1.4392921    3.8371433   -0.0912564 
H    -2.1383681    3.8295004   -0.8259526 
H    -0.5574525   -0.4223360    1.0180465 
H     2.1566190    1.5839206   -1.5612277 
H     0.7646795    3.5910443   -1.4306895 
H    -1.9238133    1.6016569    1.1208237 
C     1.7495276   -0.7927287   -0.3523808 
C     1.5135379   -1.6571225   -1.6297651 
H     1.6095590   -1.3992173    0.5714959 
H     2.8207904   -0.4930588   -0.3166087 
C     1.2126968   -3.1083063   -1.2767620 
O     2.2576973   -3.9767067   -1.0000543 
O    -0.0937989   -3.5552656   -1.1268755 
H    -0.4410625   -3.2616132   -0.2269819 
N     0.4913060   -1.0645956   -2.5169936 
H     2.4759604   -1.6983923   -2.1921074 
H     0.4354716   -1.6308134   -3.3978895 
H    -0.4524054   -1.1540618   -2.0694544 
