24
Energy =
C     1.0123787    2.6534989   -0.9503114 
C     0.7445318    2.7538667    0.3717214 
C     0.7961420    1.6542189    1.1579327 
C     1.3483521    1.4532203   -1.4889378 
C     1.4211877    0.3460569   -0.7000386 
C     1.1313617    0.4505526    0.6266131 
O     0.4048630    3.9867858    0.9206048 
H     1.2341814    4.4769147    1.2360103 
H     1.1509956   -0.4281231    1.2661851 
H     1.5358220    1.3776260   -2.5571557 
H     0.9413947    3.5387669   -1.5725571 
H     0.5553154    1.7454027    2.2112368 
C     1.7641245   -0.9983028   -1.3082303 
C     0.5391094   -1.7636390   -1.9192053 
H     2.2345018   -1.6410115   -0.5306053 
H     2.5783851   -0.8431169   -2.0465123 
C    -0.8094966   -1.0747460   -1.7007059 
O    -1.5727763   -1.3837058   -0.5794998 
O    -1.2715724   -0.1119899   -2.5929890 
H    -2.1456338    0.2587905   -2.2434723 
N     0.7730533   -2.1487470   -3.3361699 
H     0.4303020   -2.7115084   -1.3438559 
H     0.0311298   -1.7510488   -3.9636288 
H     1.6752390   -1.7910000   -3.7222249 
