24
Energy =
C     0.4731032    2.4566208   -0.0766882 
C    -0.5712117    2.6017391   -0.9243800 
C    -0.8277214    1.6506164   -1.8513974 
C     1.2720325    1.3621868   -0.1594697 
C     1.0253748    0.4045173   -1.0966980 
C    -0.0337262    0.5533250   -1.9405247 
O    -1.3880459    3.7245018   -0.8359447 
H    -1.0401614    4.4689515   -1.4301835 
H    -0.2546150   -0.2048723   -2.6873980 
H     2.1033761    1.2565679    0.5330574 
H     0.6582367    3.2206513    0.6708466 
H    -1.6767718    1.7734847   -2.5151670 
C     1.9004237   -0.8262640   -1.1844495 
C     1.2383728   -2.0659606   -0.5332238 
H     2.8918802   -0.6415803   -0.7104757 
H     2.1176447   -1.0317286   -2.2567825 
C     2.0279840   -3.3279087   -0.8452437 
O     3.3810905   -3.4001452   -0.5376157 
O     1.4295998   -4.3900828   -1.5107174 
H     1.3818876   -4.1779801   -2.4950131 
N     1.1027122   -1.8805859    0.9214526 
H     0.2248112   -2.2205487   -0.9692476 
H     2.0370390   -1.6721687    1.3492601 
H     0.4627187   -1.0779405    1.1256760 
