24
Energy =
C     1.4365489    2.4711673   -1.3521129 
C     0.4204782    2.9361826   -0.5903906 
C    -0.2399136    2.0858929    0.2406420 
C     1.8042919    1.1664617   -1.2864836 
C     1.1527890    0.3134677   -0.4484176 
C     0.1215463    0.7794445    0.3082885 
O     0.0754972    4.2887831   -0.6807647 
H    -0.7066919    4.5549743   -0.0929226 
H    -0.4218589    0.1106628    0.9709505 
H     2.6138326    0.8078599   -1.9200082 
H     1.9469516    3.1564407   -2.0202177 
H    -1.0604501    2.4482306    0.8504834 
C     1.5420669   -1.1477211   -0.3912054 
C     0.7859950   -1.9823285   -1.4503649 
H     1.3309534   -1.5505413    0.6239952 
H     2.6409158   -1.2556430   -0.5434241 
C     1.1735053   -1.5800077   -2.8653243 
O     0.2472047   -0.9660787   -3.6968683 
O     2.4740767   -1.7592908   -3.3191861 
H     2.5653791   -2.7185281   -3.6206623 
N     1.0277518   -3.4175065   -1.2145338 
H    -0.3090725   -1.7805007   -1.3722237 
H     2.0571928   -3.6087220   -1.1585697 
H     0.6072937   -3.7001405   -0.2973645 
