24
Energy =
C     0.5684245    2.0069568   -2.6363205 
C     0.1131822    2.8815064   -1.7103326 
C     0.2492673    2.5919859   -0.3883751 
C     1.1652026    0.8497194   -2.2545636 
C     1.3169952    0.5617073   -0.9329403 
C     0.8448133    1.4357675   -0.0012062 
O    -0.4890309    4.0676164   -2.1431322 
H    -0.8346339    4.6528415   -1.3903453 
H     0.9294655    1.2080742    1.0583014 
H     1.5041089    0.1477543   -3.0118320 
H     0.4400402    2.2408037   -3.6874550 
H    -0.1236958    3.2806755    0.3620403 
C     1.9543151   -0.7464680   -0.5052959 
C     0.9433354   -1.9312777   -0.3215530 
H     2.4917636   -0.5858256    0.4561494 
H     2.7655342   -0.9902962   -1.2230800 
C    -0.5193998   -1.5479287   -0.5199483 
O    -1.3235931   -1.2842382    0.5823495 
O    -1.0585682   -1.4204862   -1.7936668 
H    -1.4070865   -2.3242905   -2.0746859 
N     1.2891986   -3.0977552   -1.1667120 
H     1.0011082   -2.2382018    0.7498909 
H     2.1577792   -2.9668061   -1.7331564 
H     1.4500913   -3.9380903   -0.5620824 
