24
Energy =
C     0.5469383    0.7334917    1.7915411 
C     0.7699831    2.0275411    1.4381620 
C     1.2672458    2.3095380    0.2125460 
C     0.8228851   -0.2691410    0.9194628 
C     1.3283006    0.0136668   -0.3129080 
C     1.5447422    1.3110596   -0.6637617 
O     0.4958218    3.0843581    2.3119699 
H     0.1283555    2.7935696    3.2116273 
H     1.9407014    1.5578798   -1.6460999 
H     0.6337996   -1.2982082    1.2145665 
H     0.1458405    0.4979423    2.7714705 
H     1.4385089    3.3462041   -0.0570982 
C     1.6190374   -1.0973753   -1.2971121 
C     0.4784659   -1.2673624   -2.3291561 
H     1.7962106   -2.0599204   -0.7662212 
H     2.5741669   -0.8684733   -1.8259672 
C     0.9112605   -2.1862765   -3.4695523 
O     1.7082671   -1.6533248   -4.4745481 
O     0.6242242   -3.5505310   -3.5023615 
H    -0.0147316   -3.8147031   -2.7698979 
N    -0.7650620   -1.7155085   -1.6691127 
H     0.2921713   -0.2892020   -2.8341017 
H    -0.5624401   -2.4424361   -0.9428213 
H    -1.2054977   -0.9060286   -1.1686161 
