24
Energy =
C    -0.3502374    1.6183737    1.0001759 
C    -0.1829761    2.7469538    0.2732957 
C     0.6292946    2.7417105   -0.8087253 
C     0.2915102    0.4767852    0.6435326 
C     1.1125107    0.4636697   -0.4436150 
C     1.2741735    1.6037588   -1.1723073 
O    -0.8419601    3.9152465    0.6417444 
H    -1.7405469    3.9813533    0.1762454 
H     1.9180601    1.6125005   -2.0476514 
H     0.1367994   -0.4298193    1.2242290 
H    -1.0027851    1.6369673    1.8665961 
H     0.7588235    3.6561032   -1.3776808 
C     1.8134187   -0.8180386   -0.8488750 
C     0.9205619   -1.8403059   -1.6275083 
H     2.2362033   -1.2742021    0.0749324 
H     2.7064577   -0.5807941   -1.4674898 
C     0.9237665   -3.2247116   -0.9752532 
O    -0.1028261   -4.1287294   -1.2274368 
O     2.0092979   -3.6498741   -0.2168171 
H     1.8414658   -4.6035056    0.0803002 
N    -0.4495021   -1.3187439   -1.8161958 
H     1.3802653   -2.0076291   -2.6283583 
H    -0.4217663   -0.5395868   -2.5143725 
H    -1.0543898   -2.0606726   -2.2458680 
