24
Energy =
C     0.6296943    1.2449863    1.7244323 
C    -0.4926468    1.8794129    1.3087332 
C    -0.9503361    1.6692142    0.0586535 
C     1.2873541    0.4057180    0.8874418 
C     0.8418391    0.1789843   -0.3868252 
C    -0.2985736    0.8305347   -0.7885244 
O    -1.1955377    2.7522140    2.1436947 
H    -0.7932850    2.8559268    3.0693973 
H    -0.7413142    0.7256938   -1.7613394 
H     2.1849090   -0.0891820    1.2536389 
H     1.0057076    1.4064447    2.7295431 
H    -1.8532367    2.1851371   -0.2551008 
C     1.6955641   -0.7991684   -1.2196700 
C     1.4334113   -1.2432653   -2.7027370 
H     1.7476851   -1.7385337   -0.6241994 
H     2.7318095   -0.3931645   -1.1793350 
C     0.1299186   -0.7989484   -3.3330904 
O    -1.0189008   -1.5343746   -3.0874008 
O     0.0041330    0.4147367   -4.0085313 
H     0.9027302    0.8598282   -4.1420826 
N     2.5997686   -0.8806585   -3.5329592 
H     1.3428098   -2.3571105   -2.7036503 
H     3.4260426   -1.4493160   -3.2302805 
H     2.4173776   -1.1682906   -4.5261113 
