24
Energy =
C     1.5834815    2.0834329    0.4787971 
C     0.3841302    2.6950124    0.2884129 
C    -0.6690124    1.9759615   -0.1610912 
C     1.7215093    0.7579120    0.2228459 
C     0.6592054    0.0294867   -0.2173278 
C    -0.5377869    0.6483115   -0.4134132 
O     0.2068565    4.0589095    0.5425354 
H     1.0451974    4.5318262    0.8630439 
H    -1.3857406    0.0873892   -0.8067597 
H     2.6903622    0.2862689    0.3649121 
H     2.4364059    2.6536897    0.8304532 
H    -1.6134759    2.4841502   -0.3250967 
C     0.8141224   -1.4482559   -0.5174947 
C     1.0642308   -1.7362347   -2.0140635 
H    -0.0967187   -1.9958261   -0.1838181 
H     1.6517181   -1.8723998    0.0789733 
C    -0.1330038   -1.3278668   -2.8689602 
O    -1.1765860   -2.2276226   -3.0284733 
O    -0.2745951   -0.0451532   -3.3953114 
H     0.5395595    0.5190434   -3.1935968 
N     2.3214334   -1.0947334   -2.4396232 
H     1.1482603   -2.8416752   -2.1464963 
H     3.1229721   -1.5428777   -1.9369976 
H     2.4752191   -1.2875004   -3.4593741 
