24
Energy =
C    -0.0942152    2.2213570   -1.6652611 
C     0.2265348    2.9064025   -0.5443325 
C     1.0326813    2.3308069    0.3872405 
C     0.3826871    0.9662204   -1.8647242 
C     1.1895919    0.3845304   -0.9350299 
C     1.5123599    1.0759836    0.1930450 
O    -0.2838077    4.1976098   -0.3760350 
H    -0.0029456    4.6433900    0.4905750 
H     2.1559607    0.6310982    0.9471482 
H     0.1141396    0.4305949   -2.7720867 
H    -0.7386285    2.6923949   -2.3999717 
H     1.2954392    2.8727439    1.2893567 
C     1.7140137   -1.0184473   -1.1578912 
C     0.6188531   -2.0938766   -0.9298672 
H     2.5894810   -1.2238225   -0.5023113 
H     2.0999334   -1.0838234   -2.2022428 
C     1.0162908   -3.4249820   -1.5680403 
O     0.3130948   -3.8845195   -2.6738016 
O     2.0978639   -4.1701995   -1.0992254 
H     2.5524624   -3.7173432   -0.3212423 
N     0.2710947   -2.2183360    0.5074534 
H    -0.3043074   -1.7932276   -1.4794644 
H     0.4999936   -3.1661597    0.8946085 
H     0.7586060   -1.5137945    1.1079154 
