24
Energy =
C     2.0926953    2.4033093   -1.0344589 
C     0.8871527    2.9534866   -1.3090464 
C    -0.2486867    2.2516191   -1.0554892 
C     2.1828494    1.1603935   -0.4974401 
C     1.0543543    0.4510343   -0.2378636 
C    -0.1783908    0.9764091   -0.5581777 
O     0.8455193    4.2466759   -1.8417303 
H    -0.0919723    4.5763116   -2.0451205 
H    -1.2216630    0.3225492   -0.1838171 
H     3.1614583    0.7429250   -0.2779138 
H     2.9879276    2.9784241   -1.2439451 
H    -1.2198255    2.6890518   -1.2542101 
C     1.1021428   -0.9458389    0.3508888 
C     0.4599560   -1.9975686   -0.5913802 
H     0.5569035   -0.9359190    1.3198883 
H     2.1491821   -1.2493932    0.5738289 
C    -0.8961166   -1.5499930   -1.1569136 
O    -1.1940270   -0.1762769   -1.2264521 
O    -1.7985617   -2.4565727   -1.7016219 
H    -1.4636715   -3.4070027   -1.6543890 
N     1.4224137   -2.3112827   -1.6609769 
H     0.2654221   -2.9176051    0.0060028 
H     1.0232717   -3.0551162   -2.2813191 
H     1.5343161   -1.4645089   -2.2722973 
