24
Energy =
C     0.7650589    2.6182824   -0.8085030 
C     0.1345894    2.6396636    0.3960142 
C     0.0491839    1.5044594    1.1263944 
C     1.3110163    1.4655180   -1.2713411 
C     1.2380996    0.3250500   -0.5308150 
C     0.5934531    0.3486411    0.6681492 
O    -0.4348702    3.8111787    0.9044408 
H    -0.3483873    4.6136014    0.2901592 
H     0.4986781   -0.5569020    1.2618918 
H     1.7892597    1.4528879   -2.2475263 
H     0.8264503    3.5200152   -1.4081370 
H    -0.4680144    1.5320828    2.0795399 
C     1.8237916   -0.9682295   -1.0644487 
C     0.8842598   -1.7481104   -2.0484653 
H     2.0759397   -1.6369679   -0.2111122 
H     2.8100331   -0.7358697   -1.5177077 
C    -0.5010635   -1.1239136   -2.2220299 
O    -1.5555788   -1.5384984   -1.4170955 
O    -0.7108690   -0.0953044   -3.1344364 
H    -1.6803397    0.1899238   -3.0765930 
N     1.5536324   -2.0438033   -3.3425794 
H     0.6584235   -2.7301517   -1.5732301 
H     1.0134688   -1.6381493   -4.1463536 
H     2.5118290   -1.6359583   -3.4213443 
