24
Energy =
C     1.7162372    2.7570284   -1.3152064 
C     0.4724744    3.0505116   -1.7444866 
C    -0.4756890    2.0920100   -1.7647133 
C     2.0182048    1.4973885   -0.9137379 
C     1.0756372    0.5036152   -0.9308856 
C    -0.1848203    0.8272407   -1.3643563 
O     0.1648797    4.3425148   -2.1578120 
H     0.3336872    4.4521798   -3.1517838 
H    -0.9938481    0.1288266   -1.4128566 
H     3.0302571    1.2917562   -0.5710678 
H     2.4664815    3.5406907   -1.2909043 
H    -1.4751212    2.3476841   -2.1009772 
C     1.5560787   -0.8775922   -0.4493591 
C     0.6988545   -2.1968728   -0.3854943 
H     1.9980241   -0.7023586    0.5586903 
H     2.4391309   -1.1175303   -1.0836927 
C     0.6545062   -2.7885266    1.0307374 
O     0.4339840   -1.9536890    2.1195984 
O     0.7775991   -4.1601892    1.2560729 
H     0.8567721   -4.6874308    0.3996990 
N    -0.6455179   -2.0761718   -0.9634920 
H     1.2550139   -2.9426973   -0.9995698 
H    -0.9887481   -3.0271486   -1.2406998 
H    -1.3099141   -1.7470668   -0.2193207 
