24
Energy =
C     1.3057423    2.5527244   -0.9515647 
C     0.0478470    2.8570238   -0.5575550 
C    -0.7708563    1.8838231   -0.0972004 
C     1.7555737    1.2742487   -0.8717434 
C     0.9416164    0.2912410   -0.3954070 
C    -0.3295390    0.6027787   -0.0163287 
O    -0.4071702    4.1699965   -0.6330233 
H    -0.2256052    4.6635329    0.2337433 
H    -1.0014966   -0.1704206    0.3476339 
H     2.7658046    1.0469709   -1.2001040 
H     1.9445372    3.3396786   -1.3380923 
H    -1.7828019    2.1398158    0.1969146 
C     1.4264001   -1.1403715   -0.3246298 
C     1.0025846   -1.9534231   -1.5616451 
H     1.0061020   -1.6271887    0.5842772 
H     2.5308419   -1.1794719   -0.2000743 
C     1.6733500   -1.4629874   -2.8406008 
O     0.9369467   -0.7665804   -3.7874399 
O     3.0247666   -1.6937878   -3.0707159 
H     3.5702210   -1.0426327   -2.5286927 
N     1.2776258   -3.3759955   -1.2942027 
H    -0.0948284   -1.8229605   -1.7190501 
H     0.8645514   -3.9500535   -2.0683909 
H     2.3125035   -3.5468764   -1.3389204 
