24
Energy =
C    -0.7821330    2.0657677   -0.6556448 
C     0.0885765    3.0735985   -0.9206593 
C     1.4160082    2.8195945   -0.9634822 
C    -0.3249268    0.7863215   -0.4695410 
C     1.0318821    0.5482218   -0.4761114 
C     1.8916563    1.5698888   -0.7330778 
O    -0.3511011    4.3838677   -1.1392241 
H    -1.3602387    4.4867796   -1.1322238 
H     2.9642232    1.3989407   -0.7508881 
H    -1.0878290   -0.1776537   -0.1059287 
H    -1.8462858    2.2606749   -0.6029702 
H     2.0960744    3.6380337   -1.1726086 
C     1.5420311   -0.8514594   -0.1558422 
C     0.7376691   -2.0450912   -0.8112497 
H     1.5002049   -0.9635031    0.9496528 
H     2.6229899   -0.9027957   -0.4003909 
C    -0.5084910   -1.6147231   -1.6040403 
O    -1.1794486   -0.4324648   -1.2313667 
O    -1.0401935   -2.3605124   -2.6531202 
H    -0.4700412   -3.1589827   -2.8845939 
N     1.6210258   -2.9103410   -1.6281323 
H     0.3084951   -2.6480879    0.0228497 
H     2.6317235   -2.6472648   -1.5949369 
H     1.5578680   -3.9008156   -1.2937382 
