24
Energy =
C    -0.4661145    1.4392209    1.0661229 
C    -0.1025275    2.5745579    0.4267274 
C     0.8681051    2.5398018   -0.5147049 
C     0.1465246    0.2641367    0.7718502 
C     1.1284762    0.2216420   -0.1720406 
C     1.4856547    1.3688621   -0.8147598 
O    -0.7323736    3.7771664    0.7320038 
H    -0.2440552    4.2581238    1.4793701 
H     2.2640579    1.3563700   -1.5737866 
H    -0.1578859   -0.6382265    1.2953940 
H    -1.2537119    1.4799397    1.8108214 
H     1.1414341    3.4557568   -1.0274439 
C     1.8132385   -1.0842243   -0.5141496 
C     1.3441847   -1.6531257   -1.8771948 
H     1.6507303   -1.8464100    0.2816452 
H     2.9138612   -0.9085634   -0.5382611 
C     2.2755957   -2.7690597   -2.3269234 
O     2.3087115   -3.9744399   -1.6392856 
O     3.1323333   -2.5751512   -3.4007659 
H     2.6176582   -2.7059754   -4.2600365 
N    -0.0778023   -2.0755143   -1.8319958 
H     1.4463829   -0.8593115   -2.6521687 
H    -0.1864237   -3.0893517   -2.0811625 
H    -0.4889952   -1.9820959   -0.8748338 
