24
Energy =
C     1.5100191    2.6624468   -0.0127852 
C     0.2953501    2.9911334   -0.5227314 
C    -0.5136355    2.0191747   -0.9964105 
C     1.9089915    1.3661532    0.0175985 
C     1.1047105    0.3783196   -0.4712210 
C    -0.1219725    0.7200816   -0.9690807 
O    -0.1473088    4.3169474   -0.5691127 
H     0.5162746    4.9877498   -0.1968242 
H    -0.8082541   -0.0207030   -1.3568051 
H     2.8827890    1.1263661    0.4393859 
H     2.1646351    3.4354129    0.3755936 
H    -1.4831121    2.2958297   -1.3965886 
C     1.5965840   -1.0632047   -0.3764538 
C     0.9453835   -2.0870859   -1.3477323 
H     1.4643807   -1.4225406    0.6690737 
H     2.6976186   -1.0537797   -0.5508007 
C     1.9502327   -3.1305414   -1.8107405 
O     2.9049795   -3.6465899   -0.9401846 
O     1.9064300   -3.5938246   -3.1188691 
H     2.6267504   -4.2952980   -3.2367343 
N    -0.1977530   -2.7375433   -0.6781383 
H     0.6221663   -1.5840625   -2.2883480 
H    -0.9184210   -2.0338688   -0.4014224 
H    -0.6616808   -3.3959393   -1.3504790 
