24
Energy =
C     0.5758814    1.5069671    1.4517934 
C     0.8152153    2.6834957    0.8279394 
C     1.2553932    2.6943264   -0.4516229 
C     0.7867018    0.3349655    0.8003822 
C     1.2415608    0.3385905   -0.4836430 
C     1.4672487    1.5261991   -1.1105582 
O     0.5965326    3.8831955    1.4977462 
H     1.4383238    4.1832275    1.9769665 
H     1.8127775    1.5488432   -2.1408881 
H     0.5777642   -0.6064640    1.3055116 
H     0.2070992    1.5126894    2.4718663 
H     1.4286531    3.6455369   -0.9432996 
C     1.4507629   -0.9677883   -1.2159526 
C     0.2121254   -1.5858079   -1.9668318 
H     1.8739585   -1.6968462   -0.4863367 
H     2.2787318   -0.8364089   -1.9480014 
C    -0.0026479   -3.0485079   -1.6027211 
O     0.2200816   -3.5091545   -0.3100816 
O    -0.4963005   -3.9322735   -2.5514238 
H    -1.4931326   -3.7888529   -2.6205449 
N    -1.0652451   -0.8445162   -1.8244351 
H     0.4852447   -1.6205003   -3.0483959 
H    -1.0121554    0.0472833   -1.2882394 
H    -1.4357861   -0.5895110   -2.7700117 
