24
Energy =
C     1.5207521    2.6386102   -0.9832887 
C     1.1268035    2.7944657    0.3018741 
C     0.8046237    1.7125752    1.0474963 
C     1.6030791    1.3968977   -1.5259273 
C     1.2934530    0.3017969   -0.7767199 
C     0.8869818    0.4676980    0.5129170 
O     1.0418700    4.0689460    0.8528692 
H     1.9234772    4.3351544    1.2772490 
H     0.6092319   -0.3966539    1.1136513 
H     1.9129999    1.2870662   -2.5616299 
H     1.7615106    3.5161390   -1.5738291 
H     0.4715860    1.8529628    2.0702389 
C     1.3633862   -1.0889524   -1.3741757 
C    -0.0126261   -1.6786371   -1.8216991 
H     1.8572831   -1.7506864   -0.6259203 
H     2.0554814   -1.0921857   -2.2448942 
C    -0.2353415   -3.0738935   -1.2520805 
O     0.0606712   -3.3640090    0.0760714 
O    -0.7796920   -4.0687041   -2.0521006 
H    -0.8717533   -4.9103928   -1.4974022 
N    -1.1342871   -0.7801148   -1.4844439 
H     0.0154696   -1.8136960   -2.9282723 
H    -1.0926637    0.0610779   -2.1059503 
H    -2.0400669   -1.2571188   -1.7128552 
