24
Energy =
C     0.6106497    1.7426163    1.3118935 
C     0.0118907    2.7375025    0.6038774 
C    -0.0157168    2.6728479   -0.7470938 
C     1.1800311    0.6935485    0.6663284 
C     1.1625486    0.6337103   -0.6937909 
C     0.5545056    1.6276930   -1.3976486 
O    -0.5807737    3.8346098    1.2387042 
H    -0.5366182    3.8012040    2.2515501 
H     0.5101464    1.5901226   -2.4833348 
H     1.6474691   -0.0993837    1.2449776 
H     0.6325337    1.7821787    2.3955465 
H    -0.5053623    3.4663349   -1.3007162 
C     1.7723538   -0.5496037   -1.4130294 
C     0.7744525   -1.7177890   -1.5415509 
H     2.6681736   -0.9038675   -0.8542228 
H     2.1503339   -0.2432492   -2.4125896 
C    -0.4823721   -1.3527050   -2.3375897 
O    -1.7216055   -1.4367588   -1.7173342 
O    -0.4265449   -0.9352770   -3.6679938 
H     0.5156859   -0.9292986   -4.0218027 
N     1.4873294   -2.8846565   -2.0926354 
H     0.4126554   -1.9763362   -0.5171089 
H     0.8510192   -3.7189392   -2.0767210 
H     1.7458406   -2.7246825   -3.0946699 
