24
Energy =
C    -0.4138120    2.3166283   -0.7167471 
C     0.3251009    2.7941572   -1.7532913 
C     1.4146069    2.1092265   -2.1696570 
C    -0.0574396    1.1613088   -0.1010326 
C     1.0462696    0.4763679   -0.5121422 
C     1.7764008    0.9532622   -1.5571989 
O    -0.0133052    3.9825134   -2.4079961 
H    -0.8482469    4.4312255   -2.0471270 
H     2.6457266    0.4080088   -1.9156970 
H    -0.6654886    0.7835922    0.7172541 
H    -1.2936870    2.8545771   -0.3811452 
H     1.9893657    2.4963706   -3.0041386 
C     1.4336259   -0.8267953    0.1585118 
C     0.8302522   -2.1064941   -0.4991756 
H     1.1651470   -0.7746172    1.2389597 
H     2.5424186   -0.9160242    0.1614529 
C     0.1033863   -2.9675272    0.5263001 
O    -1.2351350   -3.3078754    0.3694114 
O     0.7836810   -3.4137318    1.6503365 
H     0.1544363   -3.9846802    2.2018345 
N    -0.0062122   -1.7786568   -1.6718466 
H     1.6781144   -2.7419868   -0.8433059 
H    -0.2868783   -2.6698304   -2.1475319 
H    -0.9038691   -1.3464339   -1.3461228 
