24
Energy =
C     0.2645129    2.0133084    0.6370172 
C     1.2000351    2.7459441   -0.0096233 
C     2.0657088    2.1428619   -0.8564400 
C     0.1991243    0.6709802    0.4480738 
C     1.0784358    0.0536144   -0.3899144 
C     2.0086297    0.8002676   -1.0483406 
O     1.2655515    4.1214704    0.1895350 
H     1.8764981    4.3427240    0.9678075 
H     2.7045856    0.3311201   -1.7405575 
H    -0.5624917    0.0957423    0.9677727 
H    -0.4345620    2.5120084    1.2993803 
H     2.7975940    2.7446981   -1.3846148 
C     0.9937233   -1.4405631   -0.6173142 
C    -0.0265080   -1.7980831   -1.7179535 
H     0.7089597   -1.9399732    0.3345818 
H     1.9924744   -1.8523698   -0.8901699 
C     0.3963786   -1.2548441   -3.0775278 
O    -0.5351566   -0.6306622   -3.8962126 
O     1.6873892   -1.4520934   -3.5521941 
H     1.7252533   -2.3658376   -3.9792223 
N    -0.1824176   -3.2613114   -1.7586547 
H    -1.0079059   -1.3271391   -1.4729945 
H    -0.5973135   -3.5870866   -0.8535534 
H    -0.8912685   -3.5052780   -2.4921310 
