24
Energy =
C    -1.1947340    0.9780076    0.2761484 
C    -0.6806751    1.7971139    1.2286738 
C     0.6549239    1.9794500    1.2994974 
C    -0.3731877    0.3449330   -0.5995312 
C     0.9819986    0.5135824   -0.5267439 
C     1.4826105    1.3487681    0.4291083 
O    -1.5009151    2.4654358    2.1434349 
H    -2.4895516    2.2675359    2.0322289 
H     2.5534179    1.5204721    0.5071224 
H    -0.8332579   -0.2957369   -1.3380996 
H    -2.2669472    0.8262430    0.2107986 
H     1.0526615    2.6393938    2.0628326 
C     1.9770910   -0.1388791   -1.4864958 
C     1.5236911   -1.3592758   -2.3357334 
H     2.8384505   -0.4923201   -0.8729560 
H     2.3747341    0.6467078   -2.1645678 
C     0.7998226   -2.4267939   -1.5284931 
O    -0.5275895   -2.7615321   -1.7795259 
O     1.4783096   -3.0777384   -0.5050342 
H     0.8521772   -3.7489949   -0.0782750 
N     0.8014293   -0.9356780   -3.5508428 
H     2.4462742   -1.8876456   -2.6697831 
H     0.0489973   -0.2472382   -3.3290035 
H     1.4649519   -0.4531476   -4.2011627 
