24
Energy =
C     1.1639764    2.4759776   -1.3120084 
C     0.7959546    2.8044754   -0.0452806 
C     0.7143500    1.8393860    0.8980992 
C     1.4538714    1.1874249   -1.6260953 
C     1.3798021    0.2152551   -0.6750068 
C     0.9989655    0.5487953    0.5891849 
O     0.4950505    4.1224287    0.3128622 
H     0.5537942    4.7829621   -0.4546463 
H     0.9163299   -0.2120793    1.3613861 
H     1.7244931    0.9379608   -2.6495981 
H     1.2188992    3.2418737   -2.0782575 
H     0.4125799    2.1143357    1.9029800 
C     1.6795397   -1.2282187   -1.0235021 
C     0.4585192   -1.9411952   -1.6403319 
H     1.9870829   -1.7769246   -0.1039649 
H     2.5526316   -1.2896880   -1.7095143 
C     0.2229191   -1.5239882   -3.0876537 
O    -0.5551314   -0.4112551   -3.3688328 
O     0.8523927   -2.1831373   -4.1353506 
H     1.8054794   -1.8629617   -4.2048022 
N     0.6447858   -3.3968177   -1.4926664 
H    -0.4616954   -1.6382481   -1.0850665 
H    -0.2054662   -3.8875876   -1.8630458 
H     1.4372606   -3.7130866   -2.1023744 
