24
Energy =
C     0.3996021    1.7562746    1.1859604 
C     0.2909873    2.7961028    0.3269941 
C     0.6128110    2.6336465   -0.9769377 
C     0.8480738    0.5525833    0.7471846 
C     1.1890529    0.3848721   -0.5619883 
C     1.0627773    1.4334958   -1.4240378 
O    -0.1553586    4.0327466    0.7840499 
H     0.6224261    4.6037475    1.0943631 
H     1.3031455    1.3097838   -2.4769503 
H     0.9190121   -0.2764484    1.4455420 
H     0.1165147    1.8942779    2.2236324 
H     0.4969612    3.4688536   -1.6589590 
C     1.6958708   -0.9516720   -1.0595188 
C     0.6646738   -1.9198225   -1.7423212 
H     2.1861233   -1.4935527   -0.2205148 
H     2.5331628   -0.7356921   -1.7611055 
C    -0.7996907   -1.4290317   -1.9116508 
O    -1.3089754   -0.3804049   -1.1587879 
O    -1.7221967   -2.1278185   -2.6949003 
H    -1.3885850   -3.0239740   -3.0006110 
N     1.2600322   -2.3667351   -3.0220725 
H     0.5656244   -2.8052336   -1.0733246 
H     2.2012724   -2.7891074   -2.8377611 
H     0.7105839   -3.1485786   -3.4437974 
