24
Energy =
C     1.5326210    2.6222443   -0.9308957 
C     1.1981939    2.7472557    0.3739613 
C     0.9090355    1.6364055    1.1033027 
C     1.5825334    1.3979129   -1.5145243 
C     1.3018261    0.2823625   -0.7862852 
C     0.9586595    0.4096605    0.5252308 
O     1.1566813    4.0262468    0.9379747 
H     0.8951590    4.0357154    1.9179697 
H     0.7083555   -0.4727371    1.1118050 
H     1.8461620    1.3190060   -2.5656856 
H     1.7571703    3.5161906   -1.5027005 
H     0.6320230    1.7260214    2.1482312 
C     1.3363108   -1.0894343   -1.4291108 
C    -0.0611151   -1.6530575   -1.8421131 
H     1.8521266   -1.7789407   -0.7216631 
H     1.9952407   -1.0706229   -2.3250367 
C    -0.2717971   -3.0666960   -1.3149071 
O     0.0672017   -3.4045046   -0.0085639 
O    -0.8481397   -4.0302575   -2.1305333 
H    -0.9247908   -4.8910825   -1.6035029 
N    -1.1608548   -0.7596899   -1.4273025 
H    -0.0784198   -1.7481143   -2.9531260 
H    -1.1410143    0.1000992   -2.0238830 
H    -2.0789956   -1.2244838   -1.6303974 
