24
Energy =
C     0.4503491    0.8361660    1.5282032 
C     0.1609225    2.0886127    1.1072643 
C     0.4016556    2.4441585   -0.1751394 
C     0.9971221   -0.0628080    0.6700822 
C     1.2529209    0.2900409   -0.6210891 
C     0.9446897    1.5499812   -1.0400743 
O    -0.3937046    3.0089625    1.9905383 
H     0.3321983    3.5384751    2.4600981 
H     1.1209465    1.8435300   -2.0720923 
H     1.2110292   -1.0693958    1.0196090 
H     0.2303395    0.5580283    2.5534895 
H     0.1470029    3.4462982   -0.5032183 
C     1.8500334   -0.7120452   -1.5902801 
C     0.7954668   -1.6105448   -2.2717345 
H     2.5995861   -1.3432000   -1.0634931 
H     2.4153498   -0.1735536   -2.3834397 
C     0.1305898   -2.5729904   -1.2963159 
O    -0.9830043   -2.1891009   -0.5611778 
O     0.6793801   -3.8294992   -1.0800069 
H     1.4686771   -3.7478141   -0.4571993 
N    -0.1684452   -0.7779287   -3.0161557 
H     1.3346803   -2.2615547   -2.9989225 
H    -0.7660834   -1.4028780   -3.6083815 
H    -0.8312727   -0.3242038   -2.3398640 
