24
Energy =
C    -1.0286264    1.7644858   -0.5853993 
C    -0.3401863    2.8722276   -0.2111325 
C     1.0060403    2.8263319   -0.1402020 
C    -0.3711955    0.6150907   -0.8858234 
C     0.9964395    0.5571218   -0.8149442 
C     1.6714342    1.6832261   -0.4385014 
O    -0.9906935    4.0689320    0.1062474 
H    -2.0004329    4.0274555    0.0192237 
H     2.7573112    1.6788762   -0.3743856 
H    -0.9819851   -0.2230750   -1.1773052 
H    -2.1113952    1.7947208   -0.6468482 
H     1.5454833    3.7190927    0.1577801 
C     1.8446130   -0.6788699   -1.1311315 
C     1.1452382   -2.0227208   -1.5683515 
H     2.4975423   -0.8454014   -0.2497571 
H     2.5671751   -0.3713708   -1.9220097 
C     1.5095315   -2.4235488   -2.9966353 
O     1.7144827   -1.4505904   -3.9711855 
O     1.5231768   -3.7586559   -3.3822909 
H     1.7575867   -3.8106607   -4.3639173 
N     1.4495975   -3.1256707   -0.6262013 
H     0.0513963   -1.9269950   -1.6364446 
H     2.0979739   -2.8711141    0.1518561 
H     0.5670579   -3.4785965   -0.1873839 
