24
Energy =
C    -0.2653613    2.2045094   -1.5495759 
C    -0.4261088    2.6606616   -0.2866204 
C     0.2224400    2.0446642    0.7376399 
C     0.5361478    1.1381682   -1.7993404 
C     1.1863153    0.5168009   -0.7773110 
C     1.0252071    0.9779111    0.4939266 
O    -1.2613102    3.7615367   -0.0697537 
H    -1.3274450    4.0442535    0.9020206 
H     1.5375467    0.4992153    1.3247777 
H     0.6528097    0.7885632   -2.8221240 
H    -0.7870548    2.7052955   -2.3580456 
H     0.1010246    2.4040906    1.7538627 
C     2.0729209   -0.6771262   -1.0570669 
C     1.2538552   -1.9563720   -1.3717003 
H     2.7596151   -0.8837720   -0.2045119 
H     2.7414428   -0.4352431   -1.9147186 
C     2.1329416   -3.0447170   -1.9656219 
O     1.5792989   -4.0001600   -2.8105876 
O     3.4979338   -3.0876389   -1.6973845 
H     3.8909575   -3.9031904   -2.1496478 
N     0.5561079   -2.4589810   -0.1685909 
H     0.5142353   -1.7232315   -2.1732038 
H     0.6905932   -1.8428700    0.6654789 
H    -0.4742404   -2.4996201   -0.3509321 
