24
Energy =
C     0.9505632    2.6666189    0.2520845 
C     0.1035634    2.9909370   -0.7487710 
C    -0.2393377    2.0640270   -1.6695503 
C     1.4497775    1.4080808    0.3416770 
C     1.1016890    0.4550723   -0.5711643 
C     0.2534542    0.8017267   -1.5871237 
O    -0.4067256    4.2822158   -0.8372268 
H    -1.2736539    4.3630924   -0.3173341 
H    -0.0472989    0.0974564   -2.3494719 
H     2.1371372    1.1703215    1.1501270 
H     1.2311665    3.4255586    0.9747759 
H    -0.9062733    2.3438808   -2.4784165 
C     1.7190115   -0.9318646   -0.4173260 
C     1.1350516   -2.0801934   -1.2891157 
H     1.6016746   -1.2228805    0.6510268 
H     2.8132418   -0.8446195   -0.5951581 
C     1.5709969   -2.0064116   -2.7544888 
O     0.6027546   -1.8686020   -3.7423109 
O     2.9112349   -2.0640853   -3.1379985 
H     3.5174792   -2.2490465   -2.3558170 
N     1.4951352   -3.3818670   -0.6951350 
H     0.0218279   -2.0056354   -1.3054097 
H     2.5245041   -3.4380684   -0.5065727 
H     1.0009919   -3.5073008    0.2203892 
