24
Energy =
C    -0.9178470    1.7414223   -0.3031802 
C    -0.1777318    2.7665016    0.1694962 
C     1.1680627    2.6721990    0.1910294 
C    -0.3164276    0.6153257   -0.7661062 
C     1.0503181    0.5045021   -0.7557077 
C     1.7799776    1.5526712   -0.2689811 
O    -0.8024995    3.9159036    0.6428066 
H    -0.9239768    4.5918762   -0.1036843 
H     2.8664390    1.5022247   -0.2418572 
H    -0.9692360   -0.1609320   -1.1298785 
H    -1.9993123    1.8296672   -0.3047652 
H     1.7501821    3.4994689    0.5831982 
C     1.8397849   -0.7095562   -1.2539131 
C     1.0781142   -1.9643916   -1.8228257 
H     2.5194153   -1.0066936   -0.4287313 
H     2.5436523   -0.3315172   -2.0334342 
C     1.4039981   -2.1809990   -3.2941222 
O     0.3879686   -2.2083078   -4.2410223 
O     2.7182538   -2.3474929   -3.7088658 
H     2.9413111   -3.3286174   -3.6258659 
N     1.3818471   -3.1933046   -1.0501723 
H    -0.0155789   -1.8273893   -1.8330440 
H     2.0423661   -3.0496766   -0.2526160 
H     0.5012387   -3.5799446   -0.6332506 
