24
Energy =
C    -0.0401163    1.7451270    1.0163519 
C    -0.1762165    2.6618197    0.0308984 
C     0.3564186    2.4270042   -1.1900495 
C     0.6377249    0.5916567    0.7865273 
C     1.1811983    0.3495611   -0.4394265 
C     1.0354570    1.2759396   -1.4280730 
O    -0.8707813    3.8433709    0.2707565 
H    -0.2433878    4.5667176    0.6047016 
H     1.4590157    1.1010235   -2.4139900 
H     0.7381987   -0.1335137    1.5896684 
H    -0.4819235    1.9418198    1.9872794 
H     0.2297575    3.1662636   -1.9736770 
C     1.9314876   -0.9369764   -0.7099297 
C     1.0991054   -1.9341126   -1.5559162 
H     2.2462396   -1.4282694    0.2392083 
H     2.8781657   -0.6879906   -1.2426374 
C     1.9861317   -3.0518374   -2.0825261 
O     2.7124055   -3.8450573   -1.2053492 
O     2.0651727   -3.2984498   -3.4452173 
H     1.2502428   -3.8231005   -3.7291444 
N    -0.0745523   -2.4413953   -0.8013239 
H     0.7312689   -1.4110139   -2.4687691 
H    -0.0665001   -3.4887962   -0.7367392 
H    -0.0830920   -2.1074061    0.1902138 
