24
Energy =
C    -0.8331112    1.8171223   -0.2581576 
C    -0.0446012    2.8024691    0.2207401 
C     1.2956110    2.6470721    0.2328710 
C    -0.2860798    0.6700101   -0.7368018 
C     1.0743206    0.4974982   -0.7362355 
C     1.8534795    1.5060985   -0.2428373 
O    -0.6139072    3.9738632    0.7099750 
H    -0.7093009    4.6622938   -0.0287583 
H     2.9366789    1.4060741   -0.2222800 
H    -0.9760186   -0.0718676   -1.1039921 
H    -1.9094581    1.9541623   -0.2516307 
H     1.9169156    3.4425985    0.6304729 
C     1.8054609   -0.7457930   -1.2509498 
C     0.9856287   -1.9590183   -1.8316425 
H     2.4736633   -1.0835847   -0.4322264 
H     2.5241013   -0.3925056   -2.0272596 
C     1.2822651   -2.1786374   -3.3101699 
O     0.2383645   -2.3480296   -4.2141068 
O     2.5902806   -2.1943311   -3.7830360 
H     2.5689595   -2.3991393   -4.7732443 
N     1.2345636   -3.2087085   -1.0750896 
H    -0.0996737   -1.7711340   -1.8274149 
H     1.8977104   -3.1043006   -0.2745591 
H     0.3366762   -3.5710098   -0.6756297 
