24
Energy =
C     0.3940790    2.4934019   -0.0710328 
C     0.1409130    1.9920251    1.1669638 
C     0.4355213    0.7009177    1.4372033 
C     0.9386112    1.7021647   -1.0301120 
C     1.2326766    0.3987581   -0.7619476 
C     0.9835155   -0.0941208    0.4839133 
O    -0.4150494    2.7820620    2.1786559 
H    -0.6271753    3.7309720    1.8912039 
H     1.2117929   -1.1287715    0.7269340 
H     1.1369772    2.1231173   -2.0119983 
H     0.1624724    3.5288111   -0.2961073 
H     0.2242394    0.3115326    2.4270291 
C     1.8454101   -0.4871315   -1.8327856 
C     0.8354083   -1.4563000   -2.5060066 
H     2.6762698   -1.0731101   -1.3797212 
H     2.3215243    0.1364063   -2.6217485 
C     0.2506528   -2.4634498   -1.5118392 
O    -0.9690689   -2.2175534   -0.8916475 
O     0.9717690   -3.5969027   -1.1281247 
H     1.8394736   -3.6866788   -1.6342117 
N    -0.2266549   -0.7293805   -3.2336043 
H     1.4142290   -2.0595425   -3.2427396 
H    -0.1279626    0.3090907   -3.1715853 
H    -0.2056456   -0.9795428   -4.2499960 
