24
Energy =
C     0.6325346    2.6788768   -1.1254477 
C    -0.0709086    2.8320165    0.0200234 
C    -0.1674246    1.8073581    0.8980240 
C     1.2398622    1.4961135   -1.3996784 
C     1.1519580    0.4616124   -0.5180787 
C     0.4367514    0.6213583    0.6307655 
O    -0.6919286    4.0452575    0.2973481 
H    -1.6368384    4.0553724   -0.0707519 
H     0.3402122   -0.2013033    1.3364602 
H     1.7891482    1.3786138   -2.3299086 
H     0.7026409    3.5097580   -1.8192274 
H    -0.7324432    1.9461049    1.8136595 
C     1.8068208   -0.8687628   -0.8303991 
C     0.9402850   -1.8305712   -1.7009046 
H     2.0991213   -1.3574504    0.1279653 
H     2.7726915   -0.6824753   -1.3500346 
C     0.8190735   -3.2011044   -1.0568112 
O     0.1928990   -3.3487429    0.1755966 
O     1.3487352   -4.3166843   -1.6877714 
H     1.1694326   -5.1289145   -1.1105026 
N    -0.3812475   -1.2491635   -2.0150669 
H     1.4839799   -2.0101479   -2.6581419 
H    -0.8709283   -1.8701850   -2.7026971 
H    -0.9734896   -1.2580966   -1.1486870 
