24
Energy =
C    -0.9215945    1.9161522   -0.7747883 
C    -0.2343584    2.9388664   -1.3293052 
C     1.0919350    2.8177573   -1.5649985 
C    -0.2867238    0.7398455   -0.4698090 
C     1.0740989    0.6380696   -0.6702635 
C     1.7495697    1.6796158   -1.2276645 
O    -0.8903230    4.1235368   -1.6516892 
H    -0.8740243    4.7677785   -0.8691749 
H     2.8192130    1.6110115   -1.4062558 
H    -0.8651748   -0.2082403    0.1684972 
H    -1.9825990    2.0262748   -0.5874102 
H     1.6243491    3.6468688   -2.0184869 
C     1.8064194   -0.6279891   -0.2371421 
C     1.0608657   -1.9868661   -0.4978204 
H     2.0224401   -0.5361907    0.8487051 
H     2.7993539   -0.6567438   -0.7402911 
C    -0.3275900   -1.8361143   -1.1243951 
O    -1.0859526   -0.6748531   -0.8696096 
O    -0.8909760   -2.8412148   -1.8940137 
H    -1.7849123   -2.5187210   -2.2409731 
N     1.9400459   -2.8536993   -1.3046339 
H     0.8575720   -2.4790410    0.4803338 
H     2.7483226   -3.1668596   -0.7187318 
H     1.4222876   -3.7236284   -1.5789235 
