24
Energy =
C    -0.4617106    2.0141916    0.1902451 
C    -0.0010846    2.8695159   -0.7511694 
C     1.0388392    2.5126850   -1.5396300 
C     0.1127392    0.7941080    0.3424870 
C     1.1606227    0.4272226   -0.4477719 
C     1.6182132    1.2935699   -1.3942049 
O    -0.5926381    4.1193327   -0.9040418 
H    -1.3513578    4.0780541   -1.5755800 
H     2.4522197    1.0176576   -2.0356577 
H    -0.2728512    0.1140225    1.0979547 
H    -1.2909593    2.3157757    0.8210435 
H     1.4038385    3.2129051   -2.2835199 
C     1.7972186   -0.9371489   -0.2967624 
C     1.2419783   -1.9496467   -1.3209526 
H     1.6367077   -1.3305380    0.7322494 
H     2.8996469   -0.8317044   -0.4197751 
C     2.1216863   -3.1941708   -1.3740296 
O     3.4616110   -3.0759504   -1.7178444 
O     1.6082301   -4.4556195   -1.1012122 
H     1.6398127   -4.6064076   -0.1038963 
N    -0.1558292   -2.2656660   -0.9710166 
H     1.2916418   -1.5121418   -2.3453695 
H    -0.7623927   -1.4526165   -1.2293210 
H    -0.4916246   -3.0624157   -1.5660633 
