24
Energy =
C     0.9509498    2.4069864    0.1812460 
C     0.7035332    3.0037909   -1.0154097 
C     0.8458725    2.2947416   -2.1580720 
C     1.3398188    1.1074817    0.2280508 
C     1.4886591    0.3943554   -0.9225351 
C     1.2338160    0.9951394   -2.1174012 
O     0.2999563    4.3400904   -1.0993222 
H     0.2207942    4.8054159   -0.2014838 
H     1.3386590    0.4403519   -3.0464046 
H     1.5246366    0.6400489    1.1928140 
H     0.8355761    2.9666268    1.1032803 
H     0.6434688    2.7817605   -3.1057382 
C     1.9040311   -1.0602646   -0.8750540 
C     0.6943619   -2.0159459   -0.9575112 
H     2.4713877   -1.2751069    0.0599005 
H     2.6080075   -1.2639170   -1.7135480 
C     1.1502854   -3.4607143   -1.1873190 
O     2.4156853   -3.8700180   -0.7794213 
O     0.3054028   -4.3970838   -1.7847955 
H    -0.5968631   -4.0049949   -2.0092408 
N    -0.1019470   -1.8920446    0.2762611 
H     0.0729495   -1.7313046   -1.8377974 
H    -0.6291720   -0.9873688    0.2536503 
H    -0.8329372   -2.6430426    0.3052367 
