24
Energy =
C     0.3432308    0.6600755    1.5514889 
C     0.1894934    1.9796896    1.3000330 
C     0.5365583    2.4830599    0.0938911 
C     0.8570234   -0.1605212    0.6001698 
C     1.2078416    0.3367119   -0.6203395 
C     1.0473085    1.6685952   -0.8647825 
O    -0.3281008    2.8201028    2.2811225 
H     0.4158432    3.2064472    2.8510946 
H     1.3229668    2.0924606   -1.8265189 
H     0.9747510   -1.2180358    0.8228063 
H     0.0463832    0.2666002    2.5176408 
H     0.3971352    3.5417572   -0.0964520 
C     1.7844391   -0.5756562   -1.6891225 
C     0.7258121   -1.4484644   -2.4172917 
H     2.5502107   -1.2342768   -1.2215597 
H     2.3347078    0.0224316   -2.4490098 
C     0.0520460   -2.4474985   -1.4726395 
O    -1.1676503   -2.1462377   -0.8775320 
O     0.6905374   -3.6356231   -1.1082478 
H     1.5656822   -3.7625284   -1.5931341 
N    -0.2674284   -0.6255578   -3.1398310 
H     1.2788208   -2.0646082   -3.1630936 
H    -0.0973521    0.4009068   -3.0420197 
H    -0.2440653   -0.8449978   -4.1631602 
