24
Energy =
C    -1.0037185    1.5301267   -2.0442168 
C    -1.0983369    2.3265993   -0.9458877 
C    -0.2001707    2.1922763    0.0562196 
C    -0.0118088    0.6074402   -2.1345557 
C     0.8985266    0.4793081   -1.1302288 
C     0.7938424    1.2725618   -0.0298733 
O    -2.1078810    3.2867288   -0.8212726 
H    -2.7424841    3.3244405   -1.6113642 
H     1.4992633    1.1684097    0.7904281 
H     0.0480266   -0.0277485   -3.0147966 
H    -1.7227008    1.6278528   -2.8504507 
H    -0.2905269    2.8277310    0.9301622 
C     1.9907558   -0.5628576   -1.2176754 
C     1.5518904   -1.8974340   -0.5771598 
H     2.9150963   -0.1917086   -0.7208405 
H     2.2734443   -0.7237910   -2.2835546 
C     2.4597545   -3.0503185   -0.9835259 
O     1.9314686   -4.3260779   -1.1185182 
O     3.8231352   -2.8584939   -1.1666103 
H     4.2778563   -2.8629939   -0.2658515 
N     1.4799036   -1.7313161    0.8867002 
H     0.5429658   -2.1705392   -0.9696609 
H     1.0957736   -2.6073729    1.3180439 
H     2.4421926   -1.5955817    1.2779292 
