24
Energy =
C    -1.2364014    0.8217995    0.4768849 
C    -1.4272207    1.8272779   -0.4075418 
C    -0.4468277    2.1335913   -1.2986478 
C    -0.0740514    0.1207255    0.4821333 
C     0.9148921    0.4305478   -0.4001581 
C     0.7183846    1.4370501   -1.2966470 
O    -2.6373181    2.5272791   -0.3800957 
H    -2.7109243    3.2524354   -1.0852881 
H     1.4907187    1.6804643   -2.0249819 
H     0.0564223   -0.6887560    1.1960811 
H    -2.0289346    0.5833760    1.1782736 
H    -0.5945783    2.9324906   -2.0176509 
C     2.2038895   -0.3634645   -0.4101947 
C     2.1163677   -1.6010404   -1.3360210 
H     2.4418430   -0.6926397    0.6258263 
H     3.0525366    0.2796237   -0.7387254 
C     1.8591403   -1.2007240   -2.7837078 
O     0.8345009   -1.7990904   -3.5045259 
O     2.6471084   -0.2354086   -3.4008690 
H     2.3578919   -0.1573181   -4.3685813 
N     3.3240106   -2.4516960   -1.1848748 
H     1.2283236   -2.2065907   -1.0408251 
H     3.8426664   -2.5335762   -2.0941117 
H     4.0144685   -2.0521694   -0.5068830 
