24
Energy =
C     1.6426954    2.0839539   -2.2262718 
C     0.3812764    2.5676791   -2.2941970 
C    -0.5769659    2.0638352   -1.4721129 
C     1.9570424    1.1037236   -1.3414888 
C     1.0038602    0.6039646   -0.5082141 
C    -0.2684314    1.0844426   -0.5849255 
O     0.0973416    3.5788830   -3.2174164 
H    -0.8694514    3.8843193   -3.2207745 
H    -1.0459473    0.6775880    0.0579863 
H     2.9720107    0.7164237   -1.3117310 
H     2.3971392    2.4870478   -2.8939084 
H    -1.5917409    2.4404644   -1.5272099 
C     1.3422299   -0.5061474    0.4670145 
C     1.1636515   -1.9475326   -0.1032330 
H     0.7319425   -0.3638883    1.3886073 
H     2.3938022   -0.3795704    0.8077604 
C     0.2905314   -2.8012374    0.8053370 
O    -1.0275113   -2.4390778    1.0529898 
O     0.8121330   -3.9292455    1.4236403 
H     1.3550523   -3.6483343    2.2268782 
N     0.6612431   -1.9303548   -1.4916368 
H     2.1641131   -2.4397577   -0.1048011 
H     0.7072669   -2.9011620   -1.8850757 
H    -0.3546603   -1.6698626   -1.4919555 
