24
Energy =
C     2.1833056    2.3571818   -0.8509946 
C     0.9716513    2.9566460   -0.7744065 
C    -0.1284464    2.2314097   -0.4721297 
C     2.3080215    1.0250578   -0.6219045 
C     1.2100794    0.2843105   -0.3190433 
C    -0.0340348    0.8775833   -0.2843480 
O     0.8610329    4.3269034   -0.9896160 
H     0.7147036    4.5205376   -1.9742548 
H    -1.0217645    0.1655307    0.1311484 
H     3.2887891    0.5614015   -0.6777718 
H     3.0549315    2.9590385   -1.0843598 
H    -1.0880874    2.7267013   -0.3877725 
C     1.2911587   -1.2097189   -0.0739639 
C     0.4624939   -2.0005839   -1.1289761 
H     0.8864386   -1.4191949    0.9406261 
H     2.3442769   -1.5670165   -0.0679274 
C    -0.9555640   -1.4449895   -1.2751589 
O    -1.2135832   -0.0898297   -0.9829626 
O    -1.9717148   -2.2266096   -1.7926708 
H    -2.8016440   -1.6556096   -1.8879402 
N     1.1805940   -2.0569485   -2.4261565 
H     0.3192262   -3.0437395   -0.7665455 
H     0.6492149   -1.5356481   -3.1658386 
H     2.1196770   -1.5979536   -2.3825017 
