24
Energy =
C     0.4026143    2.4246727   -1.6463201 
C    -0.1615744    2.7948245   -0.4657503 
C    -0.0233654    1.9997643    0.6194139 
C     1.1006061    1.2639928   -1.7343313 
C     1.2434705    0.4647989   -0.6413233 
C     0.6732225    0.8378770    0.5370932 
O    -0.8883702    3.9829368   -0.3404503 
H    -0.9446360    4.5255298   -1.1956568 
H     0.7699601    0.2113211    1.4195643 
H     1.5443286    0.9785562   -2.6852883 
H     0.2958251    3.0551516   -2.5225234 
H    -0.4793264    2.3067570    1.5544363 
C     2.0048286   -0.8379150   -0.7473516 
C     1.1522006   -1.9537131   -1.3989901 
H     2.3659551   -1.1665837    0.2532069 
H     2.9236952   -0.6649803   -1.3553333 
C     2.0005840   -3.1806990   -1.7263675 
O     2.4652486   -3.3468551   -3.0252750 
O     2.4025587   -4.0929882   -0.7509690 
H     1.9844199   -3.8859230    0.1413363 
N    -0.0115314   -2.2895776   -0.5541900 
H     0.7873845   -1.5984336   -2.3924676 
H     0.2505275   -2.3111897    0.4592744 
H    -0.7394806   -1.5422745   -0.6566404 
