24
Energy =
C     0.8292017    2.0393733    0.8256281 
C     1.3733565    2.8679082   -0.0949551 
C     1.9404758    2.3589697   -1.2122770 
C     0.8450345    0.6962406    0.6289900 
C     1.4180076    0.1752646   -0.4917724 
C     1.9619784    1.0164757   -1.4159487 
O     1.3540502    4.2437693    0.1091448 
H     0.5082619    4.6486484   -0.2773838 
H     2.4069927    0.6224985   -2.3285150 
H     0.3959173    0.0442550    1.3738419 
H     0.3817447    2.4615906    1.7189721 
H     2.3722822    3.0368519   -1.9412673 
C     1.4126769   -1.3208429   -0.7231826 
C     0.1230482   -1.7908384   -1.4254007 
H     1.5179458   -1.8449127    0.2517876 
H     2.2952724   -1.6322235   -1.3280836 
C     0.0112659   -1.2147039   -2.8328135 
O     1.1140530   -1.1810193   -3.6787867 
O    -1.2065720   -0.7343148   -3.2943857 
H    -1.7802382   -1.5131664   -3.5823064 
N     0.1115731   -3.2639809   -1.4394606 
H    -0.7608946   -1.4142605   -0.8582786 
H    -0.0174801   -3.6165186   -0.4616674 
H    -0.7226935   -3.6028305   -1.9763132 
