24
Energy =
C    -0.7217017    1.3396886    0.4151349 
C     0.0715470    1.9924953    1.2916375 
C     1.4135070    1.7874268    1.2615236 
C    -0.1887935    0.4840740   -0.4937225 
C     1.1598427    0.2701769   -0.5343363 
C     1.9523760    0.9326396    0.3562410 
O    -0.5169012    2.8673477    2.2104664 
H     0.1435927    3.3137787    2.8373247 
H     3.0295302    0.7815253    0.3509092 
H    -0.8658879   -0.0116843   -1.1727345 
H    -1.7925618    1.5102232    0.4510259 
H     2.0595853    2.3058891    1.9619553 
C     1.8422329   -0.6777540   -1.5161584 
C     0.9761998   -1.4167819   -2.5739530 
H     2.3844602   -1.4485640   -0.9207001 
H     2.6223694   -0.1031491   -2.0635357 
C     0.0589943   -2.4702996   -1.9552687 
O    -1.3244485   -2.3193783   -1.9206733 
O     0.6214277   -3.6045562   -1.3842326 
H    -0.1227548   -4.1888586   -1.0245678 
N     0.3228933   -0.4779696   -3.5180354 
H     1.6796399   -2.0342212   -3.1768312 
H    -0.7211490   -0.5054287   -3.4445626 
H     0.6199442    0.5138323   -3.3592983 
