24
Energy =
C     0.2138485    1.2813921    1.4683481 
C     0.7511371    2.4151190    0.9437311 
C     1.5304533    2.3372425   -0.1587767 
C     0.4586981    0.0788105    0.8889428 
C     1.2452021   -0.0006045   -0.2199132 
C     1.7787358    1.1374811   -0.7425347 
O     0.5182832    3.6699384    1.5155672 
H    -0.0728564    3.6459357    2.3394559 
H     2.4071539    1.0957929   -1.6290040 
H     0.0192420   -0.8177385    1.3190321 
H    -0.4131913    1.3342138    2.3518941 
H     1.9521716    3.2492441   -0.5674598 
C     1.5113731   -1.3357146   -0.8789125 
C     0.6745946   -1.5345387   -2.1659014 
H     1.3169485   -2.1763692   -0.1746396 
H     2.5964679   -1.3994520   -1.1254188 
C     1.1685247   -2.7432650   -2.9357954 
O     1.8673659   -2.5745259   -4.1242947 
O     0.9983076   -4.0235062   -2.4241580 
H     1.3925740   -4.6842060   -3.0816801 
N    -0.7585082   -1.6619849   -1.8451672 
H     0.8212244   -0.6700910   -2.8548871 
H    -0.9074157   -2.4958358   -1.2259154 
H    -1.0955775   -0.8122819   -1.3370028 
