24
Energy =
C     1.2006508    1.8094730   -2.8224241 
C     0.7888557    2.8122331   -2.0127618 
C     0.6540531    2.5980109   -0.6841270 
C     1.4720219    0.5835276   -2.3064756 
C     1.3355964    0.3588849   -0.9692489 
C     0.9246082    1.3760586   -0.1602433 
O     0.5114470    4.0664458   -2.5462394 
H    -0.4585047    4.1221982   -2.8395380 
H     0.7934887    1.2116497    0.9069125 
H     1.7933019   -0.2138227   -2.9710756 
H     1.3094410    1.9986816   -3.8850936 
H     0.3222222    3.4103045   -0.0462189 
C     1.6061922   -1.0144858   -0.3867110 
C     0.3347778   -1.8557024   -0.0678319 
H     2.1969600   -0.8867121    0.5480320 
H     2.2844622   -1.5868088   -1.0588191 
C    -1.0057265   -1.1376303   -0.2839419 
O    -1.7213049   -0.7044350    0.8238340 
O    -1.5147683   -0.8621771   -1.5537109 
H    -0.8820132   -1.1387241   -2.2847186 
N     0.4179258   -3.1525091   -0.7669426 
H     0.3574222   -2.0671142    1.0278983 
H    -0.3701446   -3.7658973   -0.4451880 
H     0.2945152   -3.0269353   -1.7981288 
