24
Energy =
C    -0.1824752    1.4774063    1.1802370 
C     0.4562228    2.5541710    0.6687365 
C     1.4108641    2.3791305   -0.2836538 
C     0.1216746    0.2271748    0.7485281 
C     1.0751134    0.0464369   -0.2067070 
C     1.7194309    1.1313723   -0.7189917 
O     0.1130594    3.8261855    1.1384351 
H     0.6386014    4.5800933    0.7093052 
H     2.4865728    1.0074602   -1.4798221 
H    -0.4030861   -0.6233880    1.1756936 
H    -0.9402958    1.6301960    1.9410519 
H     1.9298914    3.2363252   -0.6990118 
C     1.4174756   -1.3430811   -0.7005071 
C     0.8718225   -1.6089156   -2.1262562 
H     1.0345850   -2.1254748   -0.0057595 
H     2.5263960   -1.4544523   -0.6949185 
C     1.4714033   -2.8815366   -2.6941094 
O     2.2757281   -2.8293727   -3.8246474 
O     1.2438961   -4.1054241   -2.0804146 
H     0.3788127   -4.4776793   -2.4434790 
N    -0.6049884   -1.6880646   -2.1381801 
H     1.2165303   -0.7906889   -2.8026508 
H    -1.0261509   -1.4761987   -1.2042052 
H    -0.9856538   -0.9701765   -2.7995117 
