24
Energy =
C     0.9281374    2.5061125   -1.8595208 
C     0.1727495    3.0027569   -0.8531486 
C    -0.0602745    2.2549368    0.2503159 
C     1.4674636    1.2649596   -1.7582735 
C     1.2542687    0.5134837   -0.6423815 
C     0.4777006    1.0136665    0.3593616 
O    -0.3711867    4.2802047   -0.9572897 
H     0.2643034    4.9738595   -0.5793860 
H     0.2701577    0.4203721    1.2462870 
H     2.0572202    0.8686715   -2.5802929 
H     1.0873616    3.1055529   -2.7490158 
H    -0.6875467    2.6549023    1.0393039 
C     1.8374188   -0.8816277   -0.5354986 
C     0.9905467   -1.9329788   -1.2851119 
H     1.9375229   -1.1726201    0.5334958 
H     2.8719428   -0.8802297   -0.9447401 
C    -0.4769696   -1.9250264   -0.8276362 
O    -1.4842794   -1.5062270   -1.6894122 
O    -0.8321240   -2.3501789    0.4538413 
H    -0.0278035   -2.6343932    0.9906658 
N     1.1503990   -1.7171102   -2.7357485 
H     1.3789635   -2.9452793   -1.0274735 
H     2.0827207   -2.0830067   -3.0400145 
H     0.4304605   -2.2701672   -3.2623178 
