24
Energy =
C     0.4347985    2.3781436    0.4335945 
C     0.3431795    3.0561554   -0.7417927 
C     0.7328681    2.4580866   -1.8906117 
C     0.9217453    1.1118169    0.4541120 
C     1.3288915    0.5139901   -0.7001782 
C     1.2210707    1.1921971   -1.8757782 
O    -0.1457636    4.3653698   -0.7970983 
H    -0.4531457    4.7294204    0.0983836 
H     1.5094958    0.7203406   -2.8112653 
H     0.9703751    0.5745163    1.3976405 
H     0.1125697    2.8438766    1.3587199 
H     0.6398037    3.0030166   -2.8236937 
C     1.8433028   -0.9133170   -0.6855544 
C     0.7277696   -2.0065820   -0.8262701 
H     2.3934046   -1.0865508    0.2664260 
H     2.6289981   -1.0094772   -1.4641013 
C    -0.6960093   -1.4483406   -0.8696525 
O    -1.2209180   -0.9401011   -2.0513345 
O    -1.4594460   -1.3905882    0.2890652 
H    -1.8543077   -2.3028275    0.4667108 
N     1.0094457   -2.9535279   -1.9363143 
H     0.7466923   -2.6034683    0.1135061 
H     0.2184152   -2.9791026   -2.6263493 
H     1.8515013   -2.6970762   -2.4992422 
