24
Energy =
C     1.4224867    2.2758281    1.0010041 
C     0.1846003    2.7494057    0.7202527 
C    -0.6035900    2.0768926   -0.1424675 
C     1.8632490    1.1348508    0.4170294 
C     1.0797561    0.4385718   -0.4623385 
C    -0.1701733    0.9322852   -0.7331568 
O    -0.3031558    3.9236796    1.3028542 
H     0.3455931    4.3691533    1.9431272 
H    -0.8668532    0.4656874   -1.4028726 
H     2.8617978    0.7798901    0.6639076 
H     2.0650617    2.8079530    1.6943623 
H    -1.5929161    2.4717463   -0.3526210 
C     1.7118173   -0.8376077   -1.0464742 
C     1.0372185   -1.8304117   -2.0687564 
H     1.9996652   -1.4578138   -0.1662781 
H     2.6910793   -0.5193805   -1.4696331 
C    -0.3985169   -1.5798173   -2.4980599 
O    -1.4282061   -2.0935267   -1.7210331 
O    -0.7338830   -0.7245499   -3.5481969 
H     0.0745381   -0.4719931   -4.0939951 
N     1.9253192   -2.0426829   -3.2283200 
H     0.9418188   -2.8141705   -1.5478079 
H     2.2283904   -1.1253601   -3.6330340 
H     2.7936092   -2.5399328   -2.9170593 
