24
Energy =
C    -1.1242651    1.6103195   -0.4196907 
C    -0.5327702    2.8051721   -0.2112654 
C     0.8149154    2.9122938   -0.3215384 
C    -0.3853812    0.5164115   -0.7367543 
C     0.9769224    0.6091557   -0.8509617 
C     1.5613088    1.8254698   -0.6382437 
O    -1.3326146    3.9053454    0.1152907 
H    -0.8154323    4.7673346    0.2500223 
H     2.6399496    1.9396448   -0.7210918 
H    -0.9305230   -0.4004610   -0.8884820 
H    -2.2031047    1.5402365   -0.3298459 
H     1.3003770    3.8683315   -0.1568766 
C     1.9130332   -0.5509992   -1.2037565 
C     1.3191482   -1.9821073   -1.4787610 
H     2.6775726   -0.5929682   -0.4003054 
H     2.4913172   -0.2226684   -2.0975600 
C     1.5279866   -2.3951287   -2.9344007 
O     0.5504355   -2.1169284   -3.8790701 
O     2.7231129   -2.9709439   -3.3491733 
H     3.4179611   -2.2482281   -3.4593663 
N     1.8348041   -2.9909030   -0.5162976 
H     0.2232665   -2.0129020   -1.3851911 
H     2.3122466   -3.7887584   -1.0053257 
H     2.5227967   -2.6170969    0.1749998 
