24
Energy =
C     1.4011829    2.5542178   -1.3153848 
C     0.6063180    2.9051690   -0.2695168 
C     0.1304671    1.9477793    0.5588493 
C     1.7177432    1.2514003   -1.5238839 
C     1.2452236    0.2864104   -0.6864760 
C     0.4459146    0.6435395    0.3563042 
O     0.2653352    4.2392739   -0.0233806 
H     0.6420791    4.8955006   -0.6985938 
H     0.0445395   -0.1101077    1.0283542 
H     2.3446780    0.9825687   -2.3705286 
H     1.7826109    3.3141441   -1.9886188 
H    -0.5111065    2.2388256    1.3836205 
C     1.5872328   -1.1709301   -0.9267176 
C     0.5721350   -1.8926720   -1.8376603 
H     1.6632796   -1.7061804    0.0458841 
H     2.5947780   -1.2466891   -1.3937615 
C    -0.8293988   -1.9408154   -1.2377145 
O    -1.7517839   -0.9336981   -1.4910715 
O    -1.1768634   -2.9708071   -0.3744075 
H    -0.7923264   -2.7813153    0.5386552 
N     0.6131288   -1.2990049   -3.1877280 
H     0.8888814   -2.9597052   -1.9102775 
H     0.0712407   -1.9132219   -3.8421384 
H     0.0963101   -0.3855008   -3.1814001 
