24
Energy =
C    -0.4932506    0.1225607    1.1433309 
C     0.4719988   -0.4803662    1.8872489 
C     1.7323450   -0.5654972    1.4044352 
C    -0.1911848    0.6424162   -0.0744241 
C     1.0797223    0.5610146   -0.5590060 
C     2.0388523   -0.0532756    0.1856821 
O     0.1968310   -1.0215204    3.1475349 
H    -0.7734260   -0.9462396    3.4339115 
H     3.0560116   -0.1423278   -0.1879205 
H    -0.9776627    1.1039547   -0.6747148 
H    -1.5088837    0.1811808    1.5198253 
H     2.4915366   -1.0550355    2.0050392 
C     1.4128352    1.1159109   -1.9285555 
C     0.9532665    0.1728039   -3.0604419 
H     2.5113199    1.2745823   -2.0247532 
H     0.9578520    2.1228408   -2.0503681 
C    -0.5620599    0.0064967   -3.1032233 
O    -1.1066276   -1.2565148   -2.9308755 
O    -1.4263143    1.0964693   -3.2086970 
H    -0.9413565    1.9413267   -3.4684329 
N     1.5055856    0.6575287   -4.3365717 
H     1.3596999   -0.8483089   -2.8561879 
H     1.2205463    0.0000198   -5.1031039 
H     1.0907537    1.5869618   -4.5801835 
