24
Energy =
C     0.0853853    1.2937399    1.3288101 
C     0.0499269    2.4783607    0.6765657 
C     0.6105104    2.5827134   -0.5580958 
C     0.6810566    0.2138152    0.7624136 
C     1.2563120    0.3169851   -0.4673551 
C     1.2085061    1.5065567   -1.1281922 
O    -0.5670482    3.5699354    1.2967025 
H    -0.5854019    4.4104416    0.7293553 
H     1.6307808    1.5944899   -2.1258782 
H     0.6842217   -0.7333493    1.2954434 
H    -0.3766792    1.2192649    2.3073726 
H     0.5748801    3.5237737   -1.0960445 
C     1.9003441   -0.8919160   -1.1186756 
C     0.9542047   -1.6960230   -2.0764981 
H     2.2690056   -1.5793933   -0.3246069 
H     2.8281693   -0.5553560   -1.6269906 
C    -0.4879835   -1.1980394   -2.1059805 
O    -1.4665798   -1.8626426   -1.3772654 
O    -0.8406805   -0.0694150   -2.8351857 
H    -1.0816163   -0.3700329   -3.7675340 
N     1.5019024   -1.7877965   -3.4516411 
H     0.8679018   -2.7258122   -1.6540662 
H     2.4340645   -1.3297343   -3.5704857 
H     1.6253105   -2.7930086   -3.7211000 
