24
Energy =
C    -0.0515098    2.4792170   -0.7099113 
C    -0.5297752    2.2430478    0.5331309 
C    -0.1507459    1.1315739    1.2044187 
C     0.8180308    1.6084456   -1.2828528 
C     1.2165029    0.4936177   -0.6079869 
C     0.7213536    0.2575684    0.6398585 
O    -1.4194036    3.1390286    1.1169307 
H    -0.9204127    3.8538165    1.6344710 
H     1.0078774   -0.6382374    1.1883354 
H     1.1849651    1.8023957   -2.2878419 
H    -0.3782243    3.3654110   -1.2434644 
H    -0.5589321    0.9439165    2.1919458 
C     2.1769752   -0.4872817   -1.2512541 
C     1.4644367   -1.6662498   -1.9467069 
H     2.8736109   -0.8814816   -0.4766695 
H     2.8130784    0.0356983   -1.9990489 
C     0.7186384   -2.5459419   -0.9484098 
O    -0.6568375   -2.7147417   -1.0275898 
O     1.4169804   -3.1745283    0.0747321 
H     1.8919964   -3.9843194   -0.2973619 
N     0.6125949   -1.1588099   -3.0385359 
H     2.2527618   -2.3165356   -2.3885097 
H     0.2593659   -1.9740584   -3.5943174 
H    -0.2482325   -0.7189722   -2.6290914 
