24
Energy =
C    -0.9903322    1.6888332   -0.1233987 
C    -0.2623327    2.7544515   -0.5273468 
C     1.0581007    2.5969129   -0.8125978 
C    -0.4106381    0.4683016    0.0032565 
C     0.9127298    0.3068702   -0.2708791 
C     1.6424963    1.3779746   -0.6891800 
O    -0.8949673    3.9964433   -0.6432726 
H    -0.2845142    4.7427295   -0.9577430 
H     2.6970974    1.2673000   -0.9298055 
H    -1.0137995   -0.3827427    0.3104877 
H    -2.0448321    1.8250983    0.0909979 
H     1.6485960    3.4446122   -1.1432959 
C     1.5561463   -1.0578021   -0.1505063 
C     1.3110815   -1.9126189   -1.4088033 
H     1.1595986   -1.5931114    0.7414991 
H     2.6497339   -0.9455619    0.0260749 
C     2.2313512   -3.1229755   -1.4333215 
O     2.9695673   -3.4151682   -2.5740527 
O     2.3388645   -3.9467117   -0.3182264 
H     2.9776139   -4.7033328   -0.5275994 
N    -0.1127418   -2.2946772   -1.4632910 
H     1.5706456   -1.3094584   -2.3113941 
H    -0.3100117   -2.7329947   -2.3952307 
H    -0.3027030   -3.0369871   -0.7460108 
