24
Energy =
C     1.4081735    2.5494029   -1.5460598 
C     0.7360508    3.0651735   -0.4825760 
C     0.3613698    2.2507390    0.5296947 
C     1.7061263    1.2251499   -1.5884683 
C     1.3365921    0.4058389   -0.5646245 
C     0.6535951    0.9257972    0.4919571 
O     0.4171693    4.4246324   -0.4057040 
H     0.7122618    4.9631620   -1.2129051 
H     0.3341304    0.2879095    1.3121576 
H     2.2283556    0.8223855   -2.4563874 
H     1.7023902    3.1939650   -2.3677870 
H    -0.1801815    2.6743072    1.3684415 
C     1.6463244   -1.0753219   -0.6182704 
C     0.5764455   -1.8601384   -1.4006557 
H     1.7113856   -1.4874197    0.4135876 
H     2.6482304   -1.2441550   -1.0738806 
C     0.5773756   -1.4943934   -2.8780312 
O     1.7551353   -1.5467130   -3.6125955 
O    -0.5925779   -1.0914379   -3.5029362 
H    -1.1364937   -1.9065299   -3.7463049 
N     0.8056906   -3.2994099   -1.1823982 
H    -0.4305730   -1.5842184   -1.0066762 
H     0.0149628   -3.8417391   -1.6055609 
H     1.6730372   -3.5976499   -1.6937650 
