24
Energy =
C    -1.2297705    1.5738356    0.4957257 
C    -0.2611496    2.4306499    0.9157867 
C     1.0360301    2.0509960    0.8636834 
C    -0.8961890    0.3440269    0.0282430 
C     0.4091258   -0.0410417   -0.0195976 
C     1.3753525    0.8226553    0.3963204 
O    -0.5700478    3.7048916    1.4015914 
H    -1.5623667    3.9145366    1.4142850 
H     2.4235380    0.5359952    0.3591727 
H    -1.6784315   -0.3293306   -0.3154666 
H    -2.2722379    1.8714333    0.5298887 
H     1.7987208    2.7450462    1.2004290 
C     0.7872299   -1.4035110   -0.5573581 
C     1.1897749   -1.3524517   -2.0472102 
H    -0.0561953   -2.1219242   -0.4353778 
H     1.6264483   -1.8136087    0.0496194 
C     1.8374610   -2.6627243   -2.4795093 
O     1.4372572   -3.8759476   -1.9326370 
O     2.8259466   -2.6578477   -3.4545673 
H     2.3895005   -2.5604955   -4.3589776 
N     0.0001502   -1.0361083   -2.8612678 
H     1.9749554   -0.5732450   -2.1915611 
H    -0.2575661   -0.0319549   -2.7141279 
H     0.2362520   -1.1126242   -3.8791394 
