24
Energy =
C     1.0610069    2.7025368   -1.0831204 
C     0.4467842    2.9204228    0.1107415 
C     0.2115052    1.8795012    0.9414743 
C     1.4385288    1.4476291   -1.4375350 
C     1.2107112    0.4013871   -0.5971978 
C     0.5866655    0.6228640    0.5925417 
O     0.0442608    4.1998824    0.5058266 
H     0.2543189    4.9261324   -0.1703299 
H     0.3773796   -0.2064027    1.2653198 
H     1.9183053    1.2854568   -2.3996734 
H     1.2479526    3.5306769   -1.7583752 
H    -0.2852901    2.0663593    1.8874329 
C     1.6083672   -1.0027739   -0.9960452 
C     0.5467867   -1.8637323   -1.7729833 
H     1.9391031   -1.5346055   -0.0732787 
H     2.5351922   -0.9463008   -1.6102969 
C     0.3882321   -3.2334129   -1.1236464 
O    -0.3116213   -3.3648761    0.0686472 
O     1.0126979   -4.3468017   -1.6690381 
H     1.9906345   -4.3349043   -1.4200044 
N    -0.7630163   -1.2026530   -2.0253366 
H     0.9781587   -2.0941447   -2.7743897 
H    -1.5579857   -1.7621955   -1.6289740 
H    -0.8726138   -0.2497040   -1.6212715 
