24
Energy =
C     0.1397561    1.9908321    0.5466090 
C     0.7621181    2.8838788   -0.2682392 
C     1.6133687    2.4396413   -1.2204073 
C     0.3751048    0.6617513    0.4076505 
C     1.2355781    0.2126288   -0.5480890 
C     1.8507324    1.1117612   -1.3653525 
O     0.5460436    4.2605151   -0.1495785 
H    -0.1250368    4.5113856    0.5688776 
H     2.5277070    0.7717596   -2.1449088 
H    -0.1411446   -0.0416524    1.0578328 
H    -0.5521109    2.3357598    1.3075563 
H     2.0977127    3.1619258   -1.8682631 
C     1.4858949   -1.2733628   -0.7166368 
C     0.4738087   -1.9573532   -1.6583718 
H     1.4577172   -1.7719593    0.2786591 
H     2.5109320   -1.4408158   -1.1155802 
C    -0.9560813   -1.8615738   -1.1361181 
O    -1.7906514   -0.8199435   -1.5195498 
O    -1.4169834   -2.7848246   -0.2074550 
H    -1.6646730   -3.6393013   -0.6843218 
N     0.6398771   -1.4332603   -3.0276761 
H     0.7129380   -3.0454563   -1.6623158 
H     0.0786185   -2.0227857   -3.6875303 
H     0.2151586   -0.4749255   -3.0867309 
