24
Energy =
C     0.6414137    2.7916208   -0.9844781 
C    -0.2158286    2.8661532    0.0598800 
C    -0.4137873    1.7871696    0.8515960 
C     1.3006327    1.6336016   -1.2450932 
C     1.1089157    0.5447840   -0.4497638 
C     0.2420220    0.6259464    0.5982524 
O    -0.8903994    4.0541977    0.3227834 
H    -1.7755352    4.0809179   -0.1712982 
H     0.0656773   -0.2384067    1.2347131 
H     1.9812184    1.5855802   -2.0915423 
H     0.7956024    3.6670115   -1.6064124 
H    -1.1000396    1.8630474    1.6882645 
C     1.8255231   -0.7544815   -0.7451219 
C     1.0942418   -1.7994413   -1.6693006 
H     2.1000461   -1.2197397    0.2302260 
H     2.8151720   -0.5208858   -1.1970544 
C     1.0130558   -3.1788815   -1.0208962 
O    -0.0199791   -4.0578426   -1.3297236 
O     2.0346973   -3.6198710   -0.1848455 
H     1.8292762   -4.5683763    0.1047897 
N    -0.2369544   -1.3785199   -2.1725616 
H     1.7623636   -1.9764939   -2.5437014 
H    -0.5849056   -0.4538944   -1.8455589 
H    -0.2348323   -1.3548474   -3.2189577 
