24
Energy =
C    -0.5344740    1.9860490    0.2080585 
C    -0.3435928    2.7607012   -0.8845102 
C     0.5699140    2.4033847   -1.8159229 
C     0.1979841    0.8560472    0.3799750 
C     1.1332236    0.4998776   -0.5444292 
C     1.3090052    1.2771847   -1.6497097 
O    -1.0939237    3.9204038   -1.0542340 
H    -0.6291301    4.7141545   -0.6279590 
H     2.0302193    0.9973092   -2.4144385 
H     0.0259222    0.2391536    1.2584098 
H    -1.2838324    2.2750876    0.9370341 
H     0.6963752    3.0209038   -2.6985714 
C     1.9351980   -0.7709921   -0.3671742 
C     1.2417949   -1.9812258   -1.0236769 
H     2.0680635   -0.9811481    0.7182762 
H     2.9616565   -0.6357808   -0.7700441 
C     1.1338192   -1.8593688   -2.5449193 
O    -0.1201761   -1.9094525   -3.1361611 
O     2.2540792   -1.7119839   -3.3650116 
H     3.1167968   -1.7171433   -2.8469741 
N     1.9359833   -3.2101697   -0.5981925 
H     0.1879774   -2.0195288   -0.6536250 
H     1.3819519   -4.0409171   -0.9202873 
H     2.8702602   -3.2851474   -1.0660217 
