24
Energy =
C     0.5280820    2.2747360    0.3844263 
C    -0.4542908    2.6485806   -0.4668608 
C    -0.6804103    1.9202764   -1.5930710 
C     1.2889393    1.1827168    0.1197409 
C     1.0727692    0.4560286   -1.0100953 
C     0.0771085    0.8263663   -1.8618586 
O    -1.2169063    3.7807761   -0.1606272 
H    -1.9334557    3.9931697   -0.8459362 
H    -0.1200958    0.2490143   -2.7618257 
H     2.0650635    0.8892384    0.8219977 
H     0.6945513    2.8584034    1.2830523 
H    -1.4692680    2.2094357   -2.2790544 
C     1.9029834   -0.7751768   -1.2960997 
C     1.2622811   -2.0405342   -0.6917230 
H     2.9336383   -0.6491955   -0.8935746 
H     2.0209797   -0.8967674   -2.3970457 
C     1.9153472   -3.2962062   -1.2436116 
O     3.1820723   -3.6834287   -0.8239394 
O     1.2629953   -4.0460783   -2.2106285 
H     1.8535864   -4.8293152   -2.4618138 
N     1.3349592   -1.9695792    0.7802125 
H     0.1941545   -2.0951209   -1.0100688 
H     0.8621838   -2.8106862    1.1896487 
H     2.3383126   -2.0304246    1.0795826 
