24
Energy =
C     0.4397093    1.7586637    1.1618426 
C     0.5197635    2.8232455    0.3325904 
C     0.9612752    2.6610819   -0.9348350 
C     0.7898850    0.5230272    0.7226693 
C     1.2201603    0.3440251   -0.5579078 
C     1.3132727    1.4286039   -1.3817660 
O     0.1609152    4.0879792    0.7874211 
H    -0.8215165    4.2676884    0.6103881 
H     1.6659873    1.3161062   -2.4040899 
H     0.7377375   -0.3072209    1.4132702 
H     0.1010069    1.9062212    2.1818015 
H     1.0353652    3.5274159   -1.5838062 
C     1.6195004   -1.0316210   -1.0699857 
C     0.4888976   -1.9382742   -1.6733554 
H     2.1516032   -1.5797489   -0.2602518 
H     2.4010740   -0.8947927   -1.8515192 
C     0.0036050   -3.0404993   -0.7346600 
O     0.1520935   -4.3692554   -1.1137546 
O    -0.5946912   -2.7660638    0.4894757 
H     0.0888637   -2.3843083    1.1167564 
N    -0.6570462   -1.2012471   -2.2541067 
H     0.9789395   -2.5164832   -2.4936433 
H    -0.6192638   -0.1672472   -2.1411039 
H    -0.7262135   -1.3933995   -3.2811281 
