24
Energy =
C     0.9691988    2.3428913    0.1045529 
C     0.3910648    2.9013034   -0.9836445 
C     0.2399564    2.1774917   -2.1163264 
C     1.4112924    1.0601616    0.0594255 
C     1.2765375    0.3294650   -1.0820973 
C     0.6776853    0.8932778   -2.1686701 
O    -0.0592557    4.2167200   -0.9350006 
H     0.6701339    4.8565514   -1.2295770 
H     0.5408840    0.3189038   -3.0818378 
H     1.8593558    0.6183053    0.9459789 
H     1.0653152    2.9282076    1.0126933 
H    -0.2418706    2.6335522   -2.9746640 
C     1.7459067   -1.1081056   -1.1297847 
C     0.6351556   -2.0808702   -0.6901910 
H     2.6386810   -1.2458393   -0.4792027 
H     2.0814605   -1.3560335   -2.1625634 
C     1.0074057   -3.5120006   -1.0476131 
O     0.3896261   -4.1363695   -2.1214390 
O     2.0215135   -4.1765276   -0.3699285 
H     1.6594537   -4.5217771    0.5063963 
N     0.3680574   -1.9009674    0.7496435 
H    -0.2929619   -1.8540653   -1.2667978 
H    -0.4460942   -2.4986849    1.0300737 
H     1.1939326   -2.2154181    1.3130637 
