24
Energy =
C    -0.3201372   -1.1245762    0.8130453 
C     0.3313798   -0.5587328    1.8622243 
C     1.3829370    0.2574386    1.6322842 
C     0.0845129   -0.8739373   -0.4592318 
C     1.1345166   -0.0343004   -0.6971313 
C     1.7881059    0.5171272    0.3638956 
O    -0.0544540   -0.8029697    3.1846015 
H    -0.8739301   -1.3929739    3.2805942 
H     2.6391160    1.1754391    0.2080423 
H    -0.4605359   -1.3312447   -1.2794972 
H    -1.1682589   -1.7765090    0.9929530 
H     1.8959521    0.7020053    2.4783589 
C     1.6392130    0.2522782   -2.1060035 
C     0.5501252    0.3242006   -3.2101579 
H     2.3811365   -0.5310649   -2.3758648 
H     2.1901488    1.2197603   -2.1051276 
C    -0.6812329    1.1259102   -2.7929554 
O    -1.8811377    0.4498558   -2.6061291 
O    -0.6292539    2.4883756   -2.5053132 
H     0.2975488    2.8593768   -2.6301518 
N     1.1385746    0.8318663   -4.4611497 
H     0.1699137   -0.7021377   -3.4154437 
H     1.5170296    1.7988857   -4.3302275 
H     1.9352689    0.2198045   -4.7565675 
