24
Energy =
C     0.2978477    2.0371435    0.8424227 
C     0.0849471    2.8993337   -0.1776706 
C     0.4620153    2.5557125   -1.4382816 
C     0.8892963    0.8370913    0.6164635 
C     1.2829509    0.4943769   -0.6411791 
C     1.0546917    1.3569718   -1.6698357 
O    -0.5243047    4.1275963    0.0961296 
H    -0.6713682    4.7058948   -0.7241420 
H     1.3280698    1.0819283   -2.6863852 
H     1.0325557    0.1483892    1.4448467 
H    -0.0195681    2.3166753    1.8412351 
H     0.2822034    3.2339504   -2.2656768 
C     1.9152775   -0.8584334   -0.9070547 
C     0.9152733   -1.9708991   -1.3398807 
H     2.4644420   -1.1977281   -0.0012771 
H     2.7021329   -0.7314172   -1.6846212 
C    -0.5470846   -1.5258898   -1.3556466 
O    -1.1264124   -0.9905256   -2.5014057 
O    -1.3027140   -1.6044271   -0.1925621 
H    -2.2290863   -1.2466176   -0.3886466 
N     1.3508036   -2.5196513   -2.6391146 
H     0.9492475   -2.7827649   -0.5762396 
H     2.1882170   -3.1300933   -2.4897503 
H     0.6007319   -3.1377724   -3.0340940 
