24
Energy =
C    -0.1435958    2.4285731   -1.4098529 
C     0.2163543    2.8931868   -0.1913285 
C     1.0517595    2.1700808    0.5893150 
C     0.3265887    1.2339514   -1.8502624 
C     1.1716480    0.5017785   -1.0714168 
C     1.5265290    0.9746385    0.1555295 
O    -0.2688209    4.1176189    0.2570639 
H    -1.1406488    3.9949321    0.7602628 
H     2.1869525    0.3959412    0.7969025 
H     0.0237694    0.8701349   -2.8288002 
H    -0.8086358    3.0215402   -2.0283057 
H     1.3357411    2.5568454    1.5620481 
C     1.6811840   -0.8400743   -1.5493540 
C     0.7420382   -1.9856288   -1.1247729 
H     2.7010850   -1.0293683   -1.1454463 
H     1.7919802   -0.8246682   -2.6578261 
C     1.0484048   -3.2720947   -1.8847224 
O     0.0344533   -4.1876056   -2.1275055 
O     2.3447069   -3.5780261   -2.2805561 
H     2.8424022   -3.9710869   -1.4954077 
N     0.8323980   -2.1476820    0.3429548 
H    -0.3006758   -1.7166824   -1.4203934 
H    -0.1252450   -2.0633428    0.7589950 
H     1.1849614   -3.0981220    0.6106072 
