24
Energy =
C    -1.1606539    1.4354889    0.6601172 
C    -0.8491456    2.6216930    0.0887834 
C     0.3178879    2.7650556   -0.5810213 
C    -0.3067390    0.3852378    0.5593973 
C     0.8719057    0.5239342   -0.1101760 
C     1.1771965    1.7191140   -0.6870320 
O    -1.7270134    3.6959538    0.1937494 
H    -2.3769756    3.7054168   -0.5845577 
H     2.1081459    1.8461005   -1.2340187 
H    -0.5746595   -0.5688998    1.0097659 
H    -2.0978866    1.3352354    1.1971305 
H     0.5568760    3.7242330   -1.0278099 
C     1.8143130   -0.6521718   -0.2381813 
C     1.5872234   -1.6350620   -1.4448003 
H     1.7900352   -1.2103747    0.7274130 
H     2.8584310   -0.2700203   -0.2879630 
C     1.4971979   -3.0733922   -0.9648043 
O     0.5489826   -3.4453319   -0.0158984 
O     2.4004580   -4.0216469   -1.4298453 
H     2.1739849   -4.9171253   -1.0163535 
N     0.4341628   -1.3227925   -2.3240350 
H     2.5182616   -1.6141678   -2.0602342 
H    -0.1244943   -0.4839152   -2.0643515 
H     0.7659753   -1.1740906   -3.3057725 
