24
Energy =
C     0.0837745    2.4762366   -0.9522808 
C     0.4045073    2.7687145    0.3291656 
C     1.1742984    1.9174342    1.0454714 
C     0.5263686    1.3258083   -1.5205844 
C     1.3017033    0.4639624   -0.8053804 
C     1.6208931    0.7650083    0.4840710 
O    -0.0520968    3.9485082    0.9085517 
H    -0.9499559    3.8039587    1.3570402 
H     2.2335714    0.0860097    1.0727983 
H     0.2592916    1.1029598   -2.5505843 
H    -0.5259998    3.1722457   -1.5181489 
H     1.4310122    2.1688400    2.0689401 
C     1.7841102   -0.8246084   -1.4327568 
C     0.7014239   -1.9276783   -1.4090284 
H     2.6943330   -1.2029398   -0.9143104 
H     2.1045321   -0.6221174   -2.4805013 
C     1.0613479   -3.0928332   -2.3259134 
O     0.1396521   -4.1115309   -2.5408960 
O     2.2798792   -3.1337729   -2.9972513 
H     2.3265807   -3.9907327   -3.5338815 
N     0.5076622   -2.3771974   -0.0182198 
H    -0.2541065   -1.5233404   -1.8163611 
H     0.0257443   -1.6211842    0.5221675 
H    -0.1508748   -3.1933075   -0.0066536 
