24
Energy =
C     1.4641624    2.5846008   -0.6581779 
C     0.1939448    2.9564237   -0.3447443 
C    -0.6866870    2.0269872    0.0905886 
C     1.8460610    1.2879766   -0.5338632 
C     0.9608490    0.3525557   -0.0915876 
C    -0.3105806    0.7297123    0.2172143 
O    -0.2318473    4.2830969   -0.4627865 
H     0.4847211    4.9206048   -0.7927774 
H    -1.0345078   -0.0063252    0.5609792 
H     2.8629424    1.0039332   -0.7930098 
H     2.1763001    3.3232840   -1.0102788 
H    -1.6976365    2.3351973    0.3342650 
C     1.3761511   -1.0990760    0.0350165 
C     1.1244454   -1.9903441   -1.2291694 
H     0.8650188   -1.5281147    0.9290819 
H     2.4561730   -1.1472233    0.2984999 
C     0.3556975   -3.2535506   -0.8832606 
O    -0.7950974   -3.1907851   -0.1071238 
O     0.7747783   -4.4810949   -1.3744971 
H     0.4562948   -4.5651321   -2.3296102 
N     0.4681799   -1.2691462   -2.3372509 
H     2.1103525   -2.3641874   -1.5923643 
H    -0.4767582   -0.9278201   -2.0366635 
H     1.0406249   -0.4439175   -2.6322344 
