24
Energy =
C     2.0887595    2.4257116   -1.4729537 
C     0.9896057    2.7558214   -2.1802478 
C    -0.0382359    1.8875292   -2.2699993 
C     2.1589519    1.2259921   -0.8447657 
C     1.1271186    0.3282371   -0.9160207 
C     0.0210713    0.6833212   -1.6448662 
O     0.9192894    3.9868357   -2.8241550 
H     0.5095605    4.6871771   -2.2156965 
H    -0.8359929    0.0552111   -1.7685805 
H     3.0589638    0.9886387   -0.2810589 
H     2.9135895    3.1285914   -1.4172764 
H    -0.9106649    2.1634887   -2.8529695 
C     1.3393194   -0.9904114   -0.1516371 
C     0.3487502   -2.2113359   -0.0921582 
H     1.5797414   -0.6921443    0.8953897 
H     2.3010150   -1.4014206   -0.5337021 
C    -0.0467070   -2.5544735    1.3441559 
O     0.9408438   -2.8134548    2.2862125 
O    -1.3789749   -2.6378243    1.7291668 
H    -1.4157014   -2.8851775    2.7102609 
N    -0.8080287   -2.1005179   -0.9937080 
H     0.9343456   -3.1069851   -0.4084046 
H    -1.2035680   -3.0589961   -1.1476364 
H    -1.5753850   -1.5890272   -0.4920986 
