24
Energy =
C     0.3087699    1.9064364    0.7966478 
C     0.8517984    2.7816208   -0.0803064 
C     1.5699914    2.3279794   -1.1328688 
C     0.4770959    0.5712815    0.6200043 
C     1.2015005    0.1058351   -0.4365108 
C     1.7439401    0.9945561   -1.3151411 
O     0.6755068    4.1493660    0.1028093 
H    -0.1512574    4.4696531   -0.3903148 
H     2.3067163    0.6406176   -2.1743882 
H     0.0193772   -0.1210895    1.3225310 
H    -0.2652822    2.2834801    1.6362630 
H     1.9988549    3.0409769   -1.8282005 
C     1.3656573   -1.3857491   -0.6538954 
C     0.3838118   -1.9388118   -1.7069460 
H     1.2152226   -1.9322610    0.3045155 
H     2.4090822   -1.6015960   -0.9706547 
C    -1.0637431   -1.6227856   -1.3457237 
O    -1.7526209   -0.5765947   -1.9511605 
O    -1.7052678   -2.3760418   -0.3711807 
H    -2.6467617   -2.0217797   -0.2600194 
N     0.7778740   -1.4431853   -3.0410080 
H     0.4413374   -3.0520533   -1.6892214 
H     1.5890529   -2.0048298   -3.3905556 
H    -0.0053070   -1.5973162   -3.7220086 
