24
Energy =
C     1.5161515    2.5069540    0.5029550 
C     0.2583968    2.9126308    0.2314039 
C    -0.5697677    2.0990074   -0.4714729 
C     1.9546513    1.2960704    0.0785977 
C     1.1363122    0.4644478   -0.6305514 
C    -0.1398424    0.8844153   -0.9002210 
O    -0.1577484    4.1682477    0.6863835 
H    -1.1127708    4.4028555    0.4381643 
H    -0.8510189    0.2908897   -1.4516212 
H     2.9741575    0.9981397    0.3146091 
H     2.1693404    3.1653694    1.0657015 
H    -1.5825749    2.4186759   -0.6935170 
C     1.7286118   -0.8798370   -1.0602293 
C     0.8659799   -1.8902405   -1.8874275 
H     2.0807263   -1.3921002   -0.1365948 
H     2.6725781   -0.6599829   -1.6096509 
C     1.4614703   -2.1559057   -3.2677452 
O     0.6191223   -2.3391887   -4.3582957 
O     2.8355667   -2.2499091   -3.4580098 
H     3.0099467   -2.4776464   -4.4283412 
N     0.7338619   -3.1405101   -1.1183842 
H    -0.1480682   -1.5196230   -2.1086062 
H     0.1350383   -2.9588257   -0.2785325 
H     0.2179945   -3.8498143   -1.6941828 
