24
Energy =
C     1.1740607    2.6212009   -0.7082413 
C     0.0165485    2.7140386   -0.0149145 
C    -0.5904819    1.5948721    0.4414864 
C     1.7370901    1.4068266   -0.9366489 
C     1.1359948    0.2748257   -0.4739665 
C    -0.0357580    0.3769719    0.2142896 
O    -0.5550069    3.9603800    0.2209010 
H    -0.2202451    4.3497098    1.0952835 
H    -0.5372830   -0.5144074    0.5831562 
H     2.6630586    1.3474219   -1.5053271 
H     1.6387934    3.5261129   -1.0854370 
H    -1.5260543    1.6840864    0.9830968 
C     1.7443150   -1.0894334   -0.7301842 
C     1.0481687   -1.8349290   -1.9066672 
H     1.6723197   -1.6740505    0.2122684 
H     2.8381489   -1.0115255   -0.9275191 
C     1.6531232   -1.4353879   -3.2669351 
O     2.2117047   -0.1726127   -3.4264166 
O     1.5922601   -2.2540459   -4.3948764 
H     1.2486237   -3.1746058   -4.1824956 
N     1.1230299   -3.2917451   -1.6635345 
H    -0.0229628   -1.5291624   -1.9613154 
H     0.8297639   -3.5175413   -0.6832686 
H     0.3986127   -3.7718677   -2.2468675 
