24
Energy =
C     1.0580077    2.6967254   -1.2353043 
C     0.4445998    2.9832923   -0.0636375 
C     0.2128280    2.0011330    0.8374344 
C     1.4378897    1.4230699   -1.5131956 
C     1.2119127    0.4305096   -0.6086700 
C     0.5899816    0.7253774    0.5673365 
O     0.0558842    4.2892365    0.2167439 
H    -0.8900574    4.4591026   -0.1067550 
H     0.3874454   -0.0601732    1.2929097 
H     1.9209708    1.2040049   -2.4622303 
H     1.2420721    3.4956235   -1.9458233 
H    -0.2753717    2.2465690    1.7745426 
C     1.6137596   -0.9944555   -0.9185920 
C     0.5553133   -1.9073205   -1.6379990 
H     1.9485868   -1.4680649    0.0341052 
H     2.5401313   -0.9760127   -1.5355918 
C     0.4089482   -3.2325748   -0.9052523 
O    -0.2647144   -3.2962493    0.3091101 
O     0.9947607   -4.3811946   -1.4168318 
H     0.7946186   -5.1510250   -0.7906559 
N    -0.7596237   -1.2710558   -1.9291893 
H     0.9907008   -2.2056775   -2.6198741 
H    -1.5470034   -1.8115632   -1.4939933 
H    -0.8728525   -0.2987743   -1.5762487 
