24
Energy =
C     1.3067365    2.5857690   -1.0246153 
C    -0.0143634    2.8685812   -0.8706034 
C    -0.8661994    1.8915883   -0.4863155 
C     1.7680898    1.3310919   -0.7898885 
C     0.9118916    0.3480869   -0.3965036 
C    -0.4111028    0.6349383   -0.2516444 
O    -0.5220571    4.1518487   -1.0986574 
H     0.1737536    4.8207123   -1.4105503 
H    -1.1131518   -0.1385070    0.0487188 
H     2.8253753    1.1219429   -0.9259351 
H     1.9964754    3.3614790   -1.3392302 
H    -1.9180663    2.1296190   -0.3738321 
C     1.4145817   -1.0595394   -0.1573986 
C     1.1709688   -1.9768091   -1.3810872 
H     0.8882987   -1.4800170    0.7289545 
H     2.4972503   -1.0537743    0.1005903 
C     1.9011550   -1.4766763   -2.6251792 
O     1.2073512   -0.7860768   -3.6087642 
O     3.2714234   -1.6623169   -2.7684064 
H     3.7566102   -0.9733876   -2.2156020 
N     1.4989908   -3.3855085   -1.0488219 
H     0.0893350   -1.9346105   -1.6490017 
H     2.2920238   -3.7429708   -1.6381957 
H     1.8041646   -3.5082417   -0.0550712 
