24
Energy =
C    -0.1098661    1.4476909    1.2857884 
C    -0.4509646    2.4193176    0.4085968 
C    -0.0178362    2.3583852   -0.8714105 
C     0.6736792    0.4132109    0.8872553 
C     1.1175202    0.3468140   -0.3996988 
C     0.7658561    1.3271999   -1.2779990 
O    -1.2558315    3.4764590    0.8205108 
H    -0.6908205    4.2429744    1.1696193 
H     1.1082433    1.2915803   -2.3095884 
H     0.9362683   -0.3625590    1.6027651 
H    -0.4742280    1.5041454    2.3061109 
H    -0.3080541    3.1395829   -1.5660007 
C     1.9853028   -0.8072117   -0.8567311 
C     1.2162518   -1.8262169   -1.7415402 
H     2.4270206   -1.3467425    0.0116384 
H     2.8479564   -0.3788254   -1.4164906 
C     2.1894408   -2.7881006   -2.4449210 
O     3.5201124   -2.4188760   -2.6131200 
O     1.7719134   -3.9827002   -3.0321369 
H     0.8078559   -4.1891597   -2.8323697 
N     0.2264783   -2.5487899   -0.9148342 
H     0.6985607   -1.2787292   -2.5623980 
H    -0.3202762   -1.8781210   -0.3253329 
H    -0.4990526   -2.9709369   -1.5389562 
