24
Energy =
C     0.4236049    2.5810687   -1.3183001 
C    -0.4344680    2.6879612   -0.2786430 
C    -0.5063337    1.6869505    0.6392205 
C     1.2163415    1.4873187   -1.4459409 
C     1.1552156    0.4861314   -0.5242278 
C     0.2815977    0.5888252    0.5149787 
O    -1.2294667    3.8341460   -0.1771575 
H    -1.8593039    3.8311652    0.6177134 
H     0.2055951   -0.2061083    1.2526565 
H     1.8889581    1.4125870   -2.2987024 
H     0.4621443    3.3802568   -2.0506694 
H    -1.1964564    1.7613618    1.4728556 
C     2.0182061   -0.7484663   -0.6771774 
C     1.3311627   -1.8296282   -1.5358683 
H     2.2547184   -1.1665244    0.3262483 
H     3.0006779   -0.4799216   -1.1271305 
C     1.0962711   -1.3381452   -2.9644404 
O    -0.1972940   -1.0463392   -3.3766099 
O     2.1510850   -1.1139786   -3.8491588 
H     3.0272917   -1.4380610   -3.4638533 
N     2.1607059   -3.0479167   -1.5016056 
H     0.3214932   -2.0493096   -1.1129776 
H     2.1080166   -3.4749013   -0.5465093 
H     1.7583443   -3.7623089   -2.1571000 
