24
Energy =
C    -0.2164847    1.1226112    1.1680716 
C    -0.1382982    2.3403646    0.5837865 
C     0.6281271    2.5150311   -0.5167280 
C     0.4670851    0.0712174    0.6482325 
C     1.2418875    0.2393881   -0.4596519 
C     1.3157717    1.4693123   -1.0419153 
O    -0.8412146    3.4150302    1.1190372 
H    -1.7706568    3.4706083    0.7167932 
H     1.9202144    1.6241916   -1.9336588 
H     0.3914955   -0.9019702    1.1266723 
H    -0.8284089    0.9995668    2.0552933 
H     0.6845760    3.4978040   -0.9725282 
C     1.9850682   -0.9384818   -1.0528427 
C     1.0865403   -1.7763868   -1.9854106 
H     2.3732741   -1.5790505   -0.2307782 
H     2.8858530   -0.6002257   -1.6163971 
C     0.6812726   -0.9978362   -3.2410883 
O     1.5695164   -0.1040633   -3.8288037 
O    -0.5638283   -1.1878458   -3.8415215 
H    -1.0997090   -1.9174806   -3.3983455 
N     1.8086924   -3.0139313   -2.3275183 
H     0.1452928   -2.0264982   -1.4435291 
H     1.8474582   -3.6419157   -1.4900390 
H     1.2852413   -3.5408598   -3.0681241 
