24
Energy =
C     1.0231002    2.3925583   -0.0022267 
C     0.7009715    2.0703410    1.2789963 
C     0.7060205    0.7738029    1.6636099 
C     1.3484689    1.4183024   -0.8893333 
C     1.3587065    0.1130924   -0.5015029 
C     1.0305676   -0.2046393    0.7809080 
O     0.3596581    3.0488143    2.2179725 
H     0.3806566    3.9960851    1.8555965 
H     1.0229525   -1.2410018    1.1084458 
H     1.6005612    1.6902722   -1.9119016 
H     1.0196878    3.4296222   -0.3203591 
H     0.4448080    0.5306944    2.6879298 
C     1.7021611   -0.9723962   -1.4971496 
C     0.4978506   -1.3281003   -2.4015220 
H     2.0680896   -1.8860346   -0.9764526 
H     2.5556057   -0.6259534   -2.1263076 
C     0.9378099   -2.2068641   -3.5705670 
O     1.5406404   -1.5937610   -4.6614446 
O     0.8491337   -3.5984605   -3.5556758 
H     0.3337982   -3.9304911   -2.7564772 
N    -0.5947930   -1.9289570   -1.6091891 
H     0.1232185   -0.3993569   -2.8950113 
H    -0.2175454   -2.6002347   -0.8992503 
H    -1.0931604   -1.1763321   -1.0753999 
