24
Energy =
C    -1.0481092    1.4857476   -2.1365263 
C    -1.2411964    2.2169679   -1.0147201 
C    -0.4054146    2.0730303    0.0390925 
C    -0.0098420    0.6137411   -2.2124209 
C     0.8454817    0.4757747   -1.1609463 
C     0.6360832    1.2054373   -0.0305010 
O    -2.3068249    3.1087667   -0.9414232 
H    -2.0311695    4.0245766   -1.2784574 
H     1.2927845    1.0865724    0.8279145 
H     0.1289818    0.0266360   -3.1165953 
H    -1.7365574    1.6005033   -2.9669763 
H    -0.5832475    2.6504359    0.9396637 
C     1.9913584   -0.5096306   -1.2312501 
C     1.6074712   -1.8740133   -0.6158394 
H     2.8804655   -0.0978862   -0.7022213 
H     2.3116106   -0.6394007   -2.2903414 
C     2.5827747   -2.9846241   -1.0160240 
O     3.8525256   -2.6658262   -1.4830468 
O     2.2279999   -4.3280652   -0.9087713 
H     1.3191114   -4.4421463   -0.4863155 
N     1.5053837   -1.7226498    0.8474131 
H     0.6164668   -2.1766116   -1.0281443 
H     1.1108361   -2.5963066    1.2691742 
H     2.4620006   -1.5936055    1.2601635 
