24
Energy =
C    -0.6604199    1.4511189    0.9478262 
C    -0.7421148    2.4259705    0.0034333 
C     0.0571448    2.3696640   -1.0857605 
C     0.2178446    0.4272973    0.7978244 
C     1.0223490    0.3685006   -0.2997788 
C     0.9373542    1.3485438   -1.2412455 
O    -1.6354802    3.4949331    0.1277186 
H    -2.2020047    3.4650503    0.9684745 
H     1.5722958    1.3225592   -2.1234187 
H     0.2700607   -0.3421331    1.5636278 
H    -1.2970710    1.4885454    1.8251764 
H    -0.0178834    3.1538945   -1.8312588 
C     2.0016262   -0.7722937   -0.4787627 
C     1.5408307   -1.7804235   -1.5629799 
H     2.1740955   -1.3130870    0.4794225 
H     2.9917111   -0.3438899   -0.7587572 
C     2.6890542   -2.7015595   -1.9540857 
O     3.0674097   -2.8149359   -3.2842869 
O     3.3883301   -3.4135460   -0.9871064 
H     2.8605447   -4.2357115   -0.7356493 
N     0.3253362   -2.5186281   -1.1387798 
H     1.2986662   -1.2230271   -2.4975517 
H     0.4915583   -3.5508175   -1.0771048 
H    -0.0266390   -2.2157641   -0.2012646 
