24
Energy =
C     1.5627064    2.8525467   -0.4634844 
C     0.3528769    3.2284144   -0.9243911 
C    -0.5344786    2.2947004   -1.3236691 
C     1.8917999    1.5380760   -0.4082780 
C     1.0092844    0.5696304   -0.8075503 
C    -0.2151288    0.9748201   -1.2722879 
O     0.0167545    4.5767435   -0.9816178 
H     0.2730026    4.9733493   -1.8790014 
H    -0.9725200    0.2968606   -1.6068335 
H     2.8767678    1.2664373   -0.0340353 
H     2.2641293    3.6128366   -0.1355860 
H    -1.5081417    2.6147653   -1.6810172 
C     1.5166450   -0.8799972   -0.7044152 
C     0.6861014   -2.1841765   -1.0031591 
H     1.9256558   -0.9655450    0.3295560 
H     2.4209321   -0.9322964   -1.3508939 
C     0.8314185   -3.1998548    0.1303804 
O     1.0609975   -4.5372093   -0.1619804 
O     0.6685321   -2.8181309    1.4552777 
H    -0.3173444   -2.8418256    1.6708235 
N    -0.7281151   -1.9374568   -1.3355005 
H     1.1709997   -2.6923161   -1.8726244 
H    -0.8053115   -1.8329102   -2.3763024 
H    -1.3075654   -2.7865462   -1.1218079 
