24
Energy =
C     0.2409563    2.2741638    0.0718491 
C     1.2936291    2.8886370   -0.5310076 
C     2.2654556    2.1421384   -1.1041894 
C     0.1694037    0.9187985    0.1008469 
C     1.1496783    0.1669773   -0.4711503 
C     2.1977503    0.7864142   -1.0796886 
O     1.3995104    4.2820358   -0.5784888 
H     0.6306574    4.7701650   -0.1320452 
H     2.9862052    0.2053749   -1.5505551 
H    -0.6881257    0.4266816    0.5596854 
H    -0.5483814    2.8646410    0.5246849 
H     3.0971778    2.6458434   -1.5848447 
C     1.0551388   -1.3450398   -0.4348324 
C    -0.0186321   -1.9613596   -1.3870913 
H     0.8629341   -1.6378793    0.6230897 
H     2.0433339   -1.7973409   -0.6715364 
C    -0.8740850   -2.9888885   -0.6562694 
O    -1.4473379   -2.6931475    0.5769981 
O    -1.1050639   -4.2323163   -1.2272630 
H    -1.7039790   -4.7628411   -0.6076344 
N    -0.8517358   -0.9192488   -2.0223845 
H     0.5111861   -2.5358714   -2.1838656 
H    -0.2737878   -0.4113570   -2.7331670 
H    -1.6246555   -1.3776529   -2.5644484 
