24
Energy =
C     0.2953048    2.4517239   -0.6963567 
C     1.6081998    2.7759592   -0.7205316 
C     2.5433390    1.8305410   -0.4740537 
C    -0.0873159    1.1763373   -0.4342392 
C     0.8488055    0.2147137   -0.1940026 
C     2.1687581    0.5529647   -0.2099081 
O     1.9961461    4.0845913   -0.9902203 
H     2.1131863    4.2234305   -1.9881694 
H     2.9344943   -0.1969340   -0.0243799 
H    -1.1461259    0.9315477   -0.4167923 
H    -0.4442161    3.2223628   -0.8845617 
H     3.5925319    2.1052360   -0.4916276 
C     0.4180986   -1.2086273    0.1009278 
C    -0.1237941   -1.9455147   -1.1572256 
H    -0.3560479   -1.1624092    0.8963360 
H     1.2530040   -1.7988998    0.5430548 
C     1.0190710   -2.4337851   -2.0690160 
O     2.2340675   -1.7592652   -2.0763211 
O     0.8645477   -3.4816560   -2.9778814 
H    -0.0123093   -3.9611103   -2.8668815 
N    -1.0007136   -3.0526316   -0.7204470 
H    -0.7173682   -1.2348249   -1.7772488 
H    -1.6727727   -2.7280714    0.0148604 
H    -1.6255704   -3.3269241   -1.5141622 
