24
Energy =
C     0.4103314    2.1132197   -2.5114125 
C    -0.0160821    2.9107832   -1.5055033 
C     0.2024319    2.5401512   -0.2152946 
C     1.0576317    0.9517198   -2.2410417 
C     1.2907052    0.5828263   -0.9516585 
C     0.8493215    1.3797230    0.0606172 
O    -0.6765568    4.1017854   -1.8245661 
H    -0.9846663    4.6317664   -1.0165324 
H     0.9984076    1.0850447    1.0963290 
H     1.3734735    0.3132116   -3.0619806 
H     0.2188899    2.4122417   -3.5362832 
H    -0.1463574    3.1663372    0.5988182 
C     1.9811320   -0.7319503   -0.6463919 
C     1.0199855   -1.9455002   -0.4808090 
H     2.5878796   -0.6214537    0.2795139 
H     2.7302563   -0.9425367   -1.4426708 
C    -0.4639012   -1.6107499   -0.6259395 
O    -1.2060487   -1.2493724    0.4918718 
O    -1.0767092   -1.6160213   -1.8732310 
H    -2.0425544   -1.3369252   -1.7562757 
N     1.4465946   -3.0197703   -1.3972257 
H     1.1231976   -2.3161397    0.5657203 
H     0.8781446   -3.8780704   -1.2003984 
H     1.1947192   -2.7411167   -2.3775933 
