24
Energy =
C    -1.2154179    1.5027300   -0.4500015 
C    -0.6651375    2.6799142   -0.0846278 
C     0.6765460    2.8215900   -0.0733792 
C    -0.4266096    0.4531813   -0.7972805 
C     0.9387883    0.5781554   -0.7858272 
C     1.4744635    1.7807912   -0.4190279 
O    -1.4808459    3.7491766    0.2724464 
H    -1.6717371    3.7386209    1.2683019 
H     2.5529664    1.9215488   -0.4027118 
H    -0.9346379   -0.4544704   -1.0781064 
H    -2.2962330    1.4098581   -0.4670574 
H     1.1052258    3.7770401    0.2098176 
C     1.9289753   -0.5300914   -1.1558700 
C     1.3957470   -1.9368056   -1.6203282 
H     2.6175209   -0.6365140   -0.2918779 
H     2.5809759   -0.1105150   -1.9561342 
C     1.7592771   -2.2142434   -3.0750334 
O     0.8869311   -1.8304283   -4.0857688 
O     2.9984811   -2.7391619   -3.4226440 
H     3.6752897   -1.9934917   -3.4493772 
N     1.8848722   -3.0289751   -0.7461991 
H     0.2953498   -1.9870689   -1.6393527 
H     2.4976125   -2.7159674    0.0398519 
H     1.0761512   -3.5345852   -0.3132600 
