24
Energy =
C     0.9098970    2.5703812   -0.2512008 
C     0.8734165    2.2266111    1.0637100 
C     1.0766973    0.9391391    1.4227978 
C     1.1455508    1.6262928   -1.1974630 
C     1.3435129    0.3273196   -0.8383208 
C     1.3161164   -0.0081507    0.4812736 
O     0.6324695    3.1754622    2.0633113 
H     0.4861661    4.1159317    1.7136500 
H     1.4784412   -1.0371553    0.7942711 
H     1.1794078    1.9217910   -2.2423427 
H     0.7528268    3.6015018   -0.5483502 
H     1.0444402    0.6767438    2.4745404 
C     1.6053814   -0.7329502   -1.8910976 
C     0.3558502   -1.5812312   -2.2568133 
H     2.4109810   -1.4101666   -1.5231772 
H     2.0153368   -0.2678034   -2.8152885 
C    -0.2118671   -2.3430413   -1.0594009 
O     0.3249191   -3.5845992   -0.7409849 
O    -1.1961798   -1.8082018   -0.2290476 
H    -1.4788848   -0.8949055   -0.5530386 
N    -0.6767813   -0.7735596   -2.9447202 
H     0.7038955   -2.3897207   -2.9443362 
H    -0.4229969    0.2392346   -3.0027694 
H    -0.7905379   -1.1057535   -3.9320433 
