24
Energy =
C    -0.7446244    1.4336701    0.5015914 
C    -0.2971561    2.6189862    0.0279872 
C     0.8616425    2.6763411   -0.6671438 
C    -0.0374545    0.2980770    0.2737009 
C     1.1276717    0.3453160   -0.4322243 
C     1.5750007    1.5449917   -0.8982394 
O    -1.0252828    3.7807085    0.2633491 
H    -1.7058036    3.9305605   -0.4736525 
H     2.4964774    1.6051025   -1.4718181 
H    -0.4073939   -0.6475094    0.6605655 
H    -1.6700158    1.4038261    1.0663708 
H     1.2109666    3.6337420   -1.0383351 
C     1.9154679   -0.9237561   -0.6857523 
C     1.2647549   -1.8334743   -1.7554605 
H     1.9997532   -1.4738613    0.2770930 
H     2.9613970   -0.6939714   -0.9902679 
C     1.4643859   -1.2967006   -3.1769777 
O     1.7206549   -2.1625023   -4.2364805 
O     1.2915141    0.0538984   -3.4573113 
H     1.4259952    0.2002818   -4.4494757 
N     1.8244440   -3.1881388   -1.5926945 
H     0.1625785   -1.8722667   -1.6009916 
H     1.4711770   -3.6030464   -0.6987837 
H     1.4634260   -3.8116257   -2.3548938 
