24
Energy =
C     0.5288577    0.9003981    1.5604529 
C     0.4209995    2.1979715    1.1973482 
C     0.7370204    2.5681038   -0.0721447 
C     0.9513198   -0.0308286    0.6685843 
C     1.2600319    0.3301898   -0.6080856 
C     1.1561406    1.6401969   -0.9697260 
O    -0.0118320    3.1299937    2.1466868 
H    -0.0780626    4.0776651    1.7926335 
H     1.4082956    1.9568130   -1.9780720 
H     1.0264639   -1.0687423    0.9831193 
H     0.2695795    0.6154995    2.5741662 
H     0.6562631    3.6073455   -0.3718794 
C     1.7369859   -0.7080965   -1.6088549 
C     0.6040012   -1.5734717   -2.2264680 
H     2.4762583   -1.3748888   -1.1092553 
H     2.2961315   -0.2146893   -2.4342089 
C    -0.0642752   -2.4777549   -1.2025104 
O     0.3730394   -3.7870606   -1.0525677 
O    -1.0749429   -2.0110654   -0.3735032 
H    -1.9571597   -2.1919464   -0.8281829 
N    -0.3885995   -0.7587225   -2.9631731 
H     1.0948887   -2.2807276   -2.9368871 
H    -0.1519811    0.2596170   -2.9632428 
H    -0.4221790   -1.0571187   -3.9665339 
