24
Energy =
C     1.0510960    2.4133839    0.0779088 
C     0.6050698    2.9804949   -1.0747606 
C     0.5354694    2.2369240   -2.2021544 
C     1.4272341    1.1094391    0.0952916 
C     1.3669659    0.3624924   -1.0412757 
C     0.9095736    0.9325717   -2.1902482 
O     0.2099743    4.3210206   -1.1279269 
H     0.2884586    4.8100407   -0.2428268 
H     0.8384426    0.3495808   -3.1049281 
H     1.7681616    0.6628232    1.0262800 
H     1.1033907    2.9993458    0.9890671 
H     0.1729337    2.6995998   -3.1135235 
C     1.7634439   -1.0980992   -1.0180188 
C     0.5701654   -1.9962810   -0.6363186 
H     2.5980688   -1.2474761   -0.2977447 
H     2.1595866   -1.3893870   -2.0181137 
C     0.8334830   -3.4601758   -0.9918157 
O     0.0271289   -4.0846822   -1.9334975 
O     1.8723413   -4.1854169   -0.4091597 
H     2.3964888   -3.6241210    0.2442338 
N     0.2572738   -1.7890836    0.7951003 
H    -0.3051494   -1.6977380   -1.2644914 
H    -0.7725076   -1.6276636    0.9052766 
H     0.4809019   -2.6340606    1.3743175 
