24
Energy =
C     0.9271451    2.0821741    1.2527490 
C    -0.3821684    2.2896153    1.0087045 
C    -1.0142270    1.5620980    0.0656214 
C     1.6122042    1.1500277    0.5453181 
C     0.9973542    0.4023336   -0.4232473 
C    -0.3381265    0.6259270   -0.6502850 
O    -1.0829916    3.2457025    1.7355742 
H    -1.0428438    4.1491698    1.2765046 
H    -0.9188329    0.0938231   -1.3773098 
H     2.6674914    1.0046171    0.7671633 
H     1.4208353    2.6650560    2.0237420 
H    -2.0725811    1.7319537   -0.1076304 
C     1.9002350   -0.6154024   -1.1458396 
C     1.4647827   -1.6055890   -2.2915852 
H     2.3353033   -1.2541156   -0.3438737 
H     2.7678290   -0.0269935   -1.5188955 
C     0.0057286   -1.6537892   -2.6802245 
O    -0.8794835   -2.4326359   -1.9473284 
O    -0.5009638   -0.8241722   -3.6737093 
H    -0.8551249   -0.2170937   -4.3970078 
N     2.3188018   -1.4185458   -3.4788041 
H     1.6477028   -2.6406914   -1.9198159 
H     2.1703997   -0.4557627   -3.8653587 
H     3.3281327   -1.5238893   -3.2227130 
