24
Energy =
C     1.2161817    2.7194981   -1.0335749 
C    -0.0846881    2.9406362   -0.7041536 
C    -0.8174536    1.9397642   -0.1660119 
C     1.7765388    1.5013285   -0.8215317 
C     1.0411496    0.4949097   -0.2727003 
C    -0.2616327    0.7205043    0.0500534 
O    -0.6926146    4.1829354   -0.9093934 
H    -0.0798283    4.8800569   -1.3181304 
H    -0.8658811   -0.0819902    0.4653361 
H     2.8155970    1.3390624   -1.0960920 
H     1.8102339    3.5156740   -1.4692882 
H    -1.8562160    2.1276781    0.0836835 
C     1.6536848   -0.8728266   -0.0398587 
C     1.2167288   -1.9797137   -1.0562909 
H     1.4183568   -1.1690769    1.0077006 
H     2.7634401   -0.7972388   -0.0550932 
C     0.6402249   -3.2077837   -0.3494740 
O     1.1600378   -3.6245165    0.8693703 
O    -0.3391693   -3.9844514   -0.9536258 
H    -1.2391838   -3.5826382   -0.7378557 
N     0.2925207   -1.4383498   -2.0761947 
H     2.1313572   -2.3655280   -1.5647677 
H     0.8099345   -0.7498943   -2.6728785 
H     0.0106006   -2.2087832   -2.7315782 
