24
Energy =
C    -1.2693347    1.4742699   -0.3156987 
C    -0.6626373    2.5990226   -0.7800170 
C     0.6558585    2.5717175   -1.0794966 
C    -0.5548142    0.3326056   -0.1498655 
C     0.7750546    0.3070197   -0.4415377 
C     1.3761560    1.4333803   -0.9138249 
O    -1.3690499    3.7936579   -0.9567117 
H    -2.3560796    3.7271982   -0.7342201 
H     2.4316337    1.4316845   -1.1719630 
H    -1.0556023   -0.5606568    0.2143603 
H    -2.3274621    1.4850844   -0.0789407 
H     1.1251965    3.4725929   -1.4592047 
C     1.5660325   -0.9724050   -0.2766695 
C     1.4008143   -1.9170685   -1.4822289 
H     1.2309428   -1.4925697    0.6475937 
H     2.6466717   -0.7559131   -0.1202320 
C     1.9525421   -1.2984962   -2.7642632 
O     1.1081000   -0.5971831   -3.6141537 
O     3.3035194   -1.3803869   -3.0772225 
H     3.7952138   -0.6466815   -2.5923948 
N     2.0625854   -3.1912397   -1.1534736 
H     0.3154684   -2.0981352   -1.6665069 
H     1.4580255   -3.7323925   -0.4918062 
H     2.1455419   -3.7786770   -2.0190383 
