24
Energy =
C    -0.3058725    2.2896808   -0.8743020 
C     0.7590354    2.9173434   -1.4226595 
C     1.9623609    2.2848193   -1.4686636 
C    -0.1786444    1.0369076   -0.3676341 
C     1.0238031    0.4002778   -0.4084070 
C     2.0944139    1.0307941   -0.9657207 
O     0.5884784    4.2077594   -1.9327507 
H     1.4318581    4.6115511   -2.3257380 
H     3.0622253    0.5380272   -1.0137681 
H    -1.0457399    0.5286972    0.0506781 
H    -1.2617850    2.8026367   -0.8526797 
H     2.8212882    2.7800168   -1.9091316 
C     1.1555339   -1.0008671    0.1576041 
C     0.4515367   -2.1422298   -0.6624506 
H     0.7750115   -0.9510893    1.2020426 
H     2.2293261   -1.2655300    0.2781988 
C    -0.4335538   -3.0292758    0.2431822 
O    -0.1920727   -3.0679228    1.6122188 
O    -1.4018776   -3.9027395   -0.2548172 
H    -1.4884171   -3.8743898   -1.2538836 
N    -0.2738141   -1.5937313   -1.8327891 
H     1.2485886   -2.8297811   -1.0300147 
H     0.3981518   -1.0551927   -2.4301061 
H    -0.5681695   -2.3668737   -2.4716870 
