24
Energy =
C     0.7184975    1.1041618    1.4827701 
C     0.4736493    2.3209515    0.9455321 
C     0.6418409    2.5217176   -0.3814867 
C     1.1288665    0.0796968    0.6922699 
C     1.3006861    0.2730291   -0.6461003 
C     1.0508734    1.5021698   -1.1789534 
O     0.0534678    3.3680076    1.7588316 
H    -0.9593515    3.4034378    1.7989194 
H     1.1701700    1.6720280   -2.2462441 
H     1.3052482   -0.8984675    1.1356564 
H     0.5786138    0.9573532    2.5486041 
H     0.4459376    3.5043430   -0.7969099 
C     1.7398350   -0.8727750   -1.5367474 
C     0.5651578   -1.7488452   -2.0188541 
H     2.4754155   -1.5069628   -0.9918038 
H     2.2780615   -0.4780392   -2.4267973 
C    -0.1434348   -2.4344294   -0.8569949 
O     0.4633461   -3.5144387   -0.2322601 
O    -1.3431124   -1.9517026   -0.3490690 
H    -2.1019148   -2.2955598   -0.9185460 
N    -0.3314989   -0.9525953   -2.8787777 
H     0.9987250   -2.5762437   -2.6267766 
H    -1.0169794   -1.5919104   -3.3459813 
H    -0.8970690   -0.2986242   -2.2847727 
