24
Energy =
C     1.2922892    2.5871001   -0.8065914 
C    -0.0279358    2.8760142   -0.7397237 
C    -0.9128038    1.9200545   -0.3748548 
C     1.7342085    1.3405838   -0.4999499 
C     0.8498117    0.3753622   -0.1232617 
C    -0.4790175    0.6718074   -0.0662458 
O    -0.4769313    4.1533596   -1.0586217 
H    -0.4951321    4.7441243   -0.2343216 
H    -1.2014193   -0.0905931    0.2178561 
H     2.7968254    1.1196846   -0.5633927 
H     1.9887492    3.3603768   -1.1134420 
H    -1.9696654    2.1617043   -0.3390103 
C     1.3332069   -1.0226857    0.2032065 
C     1.3762465   -2.0265490   -0.9969683 
H     0.6999992   -1.4272580    1.0285226 
H     2.3492071   -0.9609478    0.6531763 
C     0.6095210   -3.2971424   -0.6717946 
O     1.2721693   -4.3799739   -0.1120410 
O    -0.7692247   -3.3530847   -0.8243900 
H    -0.9695864   -3.5597658   -1.7920973 
N     0.9224139   -1.4383908   -2.2730728 
H     2.4300737   -2.3667586   -1.1306962 
H    -0.0615198   -1.0883791   -2.1821992 
H     1.5327688   -0.6294523   -2.5349833 
