24
Energy =
C     2.3686523    2.4110385   -0.3504968 
C     1.2333939    3.1376263   -0.3524833 
C     0.0480142    2.5231160   -0.5883489 
C     2.3297144    1.0755299   -0.5809179 
C     1.1452586    0.4325174   -0.8169182 
C     0.0002460    1.1849381   -0.8208562 
O     1.3120072    4.5126036   -0.1114102 
H     0.4162027    4.9878798   -0.1236285 
H    -0.9721736    0.7746715   -1.0002909 
H     3.2661824    0.5213760   -0.5739717 
H     3.3121528    2.9127555   -0.1621511 
H    -0.8694549    3.1029415   -0.5921275 
C     1.2479229   -1.0817672   -1.0719412 
C     0.0492183   -2.0739585   -1.3030719 
H     1.8603895   -1.4773691   -0.2284262 
H     1.9165271   -1.1956444   -1.9551706 
C     0.1906402   -3.3060759   -0.4066999 
O     1.1263933   -4.2807596   -0.7246290 
O    -0.5331317   -3.4286896    0.7724533 
H    -0.0452995   -2.9304943    1.5016205 
N    -1.2797988   -1.4451031   -1.1990660 
H     0.1600485   -2.4957270   -2.3316284 
H    -1.6063304   -1.1913324   -2.1622105 
H    -1.9904684   -2.1321861   -0.8426650 
