24
Energy =
C     1.4664987    2.5252513   -1.3917938 
C     0.6948054    2.9470995   -0.3645274 
C     0.2458711    2.0481176    0.5518158 
C     1.7984115    1.2146569   -1.5099515 
C     1.3577473    0.3115413   -0.5912278 
C     0.5727022    0.7358304    0.4372257 
O     0.3777604    4.3063916   -0.2744137 
H    -0.2115646    4.5419409    0.5165053 
H     0.2008948    0.0280520    1.1739104 
H     2.4120677    0.8948272   -2.3497723 
H     1.8111211    3.2505397   -2.1211134 
H    -0.3772989    2.3765552    1.3766433 
C     1.7020730   -1.1561075   -0.7297757 
C     0.5995592   -1.9310006   -1.4915872 
H     1.8418586   -1.5933309    0.2833864 
H     2.6800754   -1.2788137   -1.2503808 
C     0.5071016   -1.5188936   -2.9625321 
O     1.6651304   -1.2087157   -3.6685989 
O    -0.7132712   -1.4869377   -3.6361180 
H    -1.4600254   -1.8740860   -3.0790862 
N     0.8335362   -3.3792237   -1.3668472 
H    -0.3858482   -1.6888764   -1.0314848 
H     1.7630562   -3.6280304   -1.7865129 
H     0.8528263   -3.6607807   -0.3583626 
