24
Energy =
C     1.6369199    2.5839106   -0.7676732 
C     0.3749103    3.0205243   -0.5107370 
C    -0.5527445    2.1509793   -0.0505999 
C     1.9637090    1.2826265   -0.5621665 
C     1.0312290    0.4071751   -0.0945971 
C    -0.2318625    0.8489817    0.1570105 
O     0.0046191    4.3535418   -0.7120797 
H     0.7535822    4.9439401   -1.0578841 
H    -0.9926742    0.1630465    0.5204753 
H     2.9750850    0.9464379   -0.7774456 
H     2.3867578    3.2741664   -1.1394972 
H    -1.5562544    2.5123375    0.1469650 
C     1.3877192   -1.0499266    0.1207995 
C     1.1275544   -1.9997108   -1.0965755 
H     0.8538500   -1.4121448    1.0286528 
H     2.4625337   -1.1222011    0.4026134 
C     0.2981986   -3.2102172   -0.6957379 
O     0.9298793   -4.4098502   -0.3980486 
O    -1.0762265   -3.1074691   -0.5103366 
H    -1.2600153   -2.6607554    0.3737067 
N     0.5381429   -1.3128718   -2.2622327 
H     2.1035192   -2.4344335   -1.4169426 
H    -0.4129163   -0.9409077   -2.0266256 
H     1.1464144   -0.5226874   -2.5783477 
