24
Energy =
C     0.0631182    2.4501727   -0.5115118 
C     1.1790776    3.0002163    0.0113441 
C     2.2954941    2.2425903    0.1515361 
C     0.0463146    1.1484582   -0.8961578 
C     1.1659337    0.3701334   -0.7592273 
C     2.2884868    0.9415028   -0.2301936 
O     1.1509453    4.3444275    0.3965666 
H     2.0291774    4.6858931    0.7719380 
H     3.1977750    0.3566138   -0.1081567 
H    -0.8809477    0.7831711   -1.3057145 
H    -0.8218500    3.0683288   -0.6203915 
H     3.1984025    2.6752376    0.5693879 
C     1.2678255   -1.1057392   -1.1576340 
C     0.0228541   -1.8399634   -1.7816947 
H     1.6353181   -1.6498207   -0.2631895 
H     2.1240476   -1.1812869   -1.8692369 
C     0.3087917   -2.2770251   -3.2107289 
O    -0.4523029   -1.7815322   -4.2620589 
O     1.3377495   -3.1686406   -3.4832065 
H     0.9714790   -4.1036097   -3.3803672 
N    -0.3962922   -3.0096665   -0.9741693 
H    -0.8482492   -1.1739368   -1.8901255 
H     0.1843128   -3.1715971   -0.1202780 
H    -1.3792548   -2.8734773   -0.6372362 
