24
Energy =
C    -0.2263294    1.7100184    0.9086110 
C    -0.5591984    2.5442992   -0.1025388 
C    -0.0637576    2.3203712   -1.3490492 
C     0.5970437    0.6541663    0.6869665 
C     1.0983784    0.4278097   -0.5584232 
C     0.7602219    1.2662234   -1.5764377 
O    -1.4112308    3.6205020    0.1657566 
H    -1.6130061    4.1991858   -0.6424012 
H     1.1469983    1.0986764   -2.5785586 
H     0.8479335   -0.0067746    1.5126592 
H    -0.6293181    1.8984866    1.8978978 
H    -0.3261665    2.9831000   -2.1667273 
C     2.0042727   -0.7556207   -0.8173150 
C     1.2586115   -1.9255032   -1.5058059 
H     2.4681996   -1.1138529    0.1308775 
H     2.8514005   -0.4189005   -1.4568924 
C     2.2362848   -2.9949949   -1.9655549 
O     2.9377816   -3.7520602   -1.0349283 
O     2.5216392   -3.1486734   -3.3167673 
H     3.1598608   -2.4228139   -3.6060553 
N     0.2369596   -2.4930911   -0.6078536 
H     0.7602162   -1.5616884   -2.4340144 
H     0.6754133   -2.7942262    0.2957978 
H    -0.4939113   -1.7758708   -0.3905006 
