24
Energy =
C     0.0229326    2.2052410   -2.2905215 
C    -0.1279462    2.9196284   -1.1514674 
C     0.4440059    2.4916427   -0.0027174 
C     0.7431579    1.0548099   -2.2834296 
C     1.3259298    0.6195394   -1.1315722 
C     1.1663216    1.3429253    0.0121557 
O    -0.8680386    4.0973524   -1.1626274 
H    -1.8450606    3.9052601   -0.9666174 
H     1.6001791    0.9970096    0.9469329 
H     0.8416569    0.4803049   -3.2006234 
H    -0.4420014    2.5602440   -3.2040095 
H     0.3115697    3.0718376    0.9041359 
C     2.0916294   -0.6889780   -1.1104703 
C     1.2210962   -1.9407962   -0.7474911 
H     2.9224713   -0.6074852   -0.3740547 
H     2.6148587   -0.8042804   -2.0829745 
C    -0.2467578   -1.6219647   -0.4333766 
O    -0.5926427   -1.2419964    0.8583218 
O    -1.2330295   -1.6151829   -1.4179500 
H    -0.8583897   -1.9760313   -2.2818335 
N     1.3400967   -3.0085660   -1.7717390 
H     1.6067185   -2.3319546    0.2254627 
H     1.9158317   -2.7448398   -2.6046679 
H     1.7962579   -3.8554956   -1.3534253 
