24
Energy =
C    -0.7678770    1.8718308   -0.0115574 
C    -0.2963270    2.7477444   -0.9281451 
C     0.8514086    2.4803861   -1.5919083 
C    -0.0960598    0.7193327    0.2389644 
C     1.0603865    0.4426648   -0.4257083 
C     1.5297867    1.3306143   -1.3463593 
O    -0.9885065    3.9273822   -1.1835335 
H    -1.6619197    3.7902816   -1.9298258 
H     2.4453690    1.1287453   -1.8944606 
H    -0.4915263    0.0206657    0.9717844 
H    -1.6866996    2.1016237    0.5171014 
H     1.2189624    3.1943383   -2.3208418 
C     1.7902164   -0.8574121   -0.1683779 
C     1.1474929   -2.0347823   -0.9401774 
H     1.7668933   -1.0702881    0.9236807 
H     2.8665932   -0.7662384   -0.4366935 
C     1.2111064   -1.8443089   -2.4512317 
O     0.0772773   -1.4470503   -3.1485013 
O     2.4125087   -1.9800175   -3.1392838 
H     2.9606522   -1.1440382   -3.0169677 
N     1.7779687   -3.3013513   -0.5301596 
H     0.0608680   -2.0872137   -0.6955430 
H     2.7986998   -3.2911003   -0.7709047 
H     1.6913475   -3.4319787    0.5050701 
