24
Energy =
C     0.4429235    0.5561607    1.6086977 
C     0.1683645    1.8541711    1.3465151 
C     0.4210875    2.3577801    0.1089245 
C     0.9741191   -0.2423459    0.6484706 
C     1.2350958    0.2578867   -0.5911850 
C     0.9493654    1.5630624   -0.8560901 
O    -0.3718582    2.6473233    2.3638206 
H    -0.5651232    3.6025355    2.0839665 
H     1.1349875    1.9749284   -1.8451837 
H     1.1745198   -1.2876277    0.8755545 
H     0.2258011    0.1627651    2.5960139 
H     0.1980560    3.3959091   -0.1127031 
C     1.8137856   -0.6341847   -1.6723355 
C     0.7407426   -1.4363082   -2.4377576 
H     2.5478160   -1.3379964   -1.2181386 
H     2.3884062   -0.0219933   -2.4022911 
C     0.0117473   -2.4180902   -1.5293168 
O    -1.2258874   -2.1062564   -0.9834831 
O     0.6259354   -3.6085248   -1.1654727 
H     0.5456112   -4.2698508   -1.9241493 
N    -0.1610057   -0.5124013   -3.1520593 
H     1.2719245   -2.0647854   -3.1881828 
H    -0.7856408   -1.0687497   -3.7829293 
H    -0.8064338   -0.0541249   -2.4620303 
