24
Energy =
C    -0.7605656    1.5091160    0.5367455 
C    -0.2644444    2.6304221   -0.0345027 
C     0.8703892    2.5710848   -0.7684908 
C    -0.1148150    0.3246979    0.3868495 
C     1.0375512    0.2592063   -0.3369299 
C     1.5215143    1.3898800   -0.9240722 
O    -0.9282086    3.8429517    0.1221493 
H    -0.5905404    4.3344086    0.9423816 
H     2.4266178    1.3562573   -1.5258168 
H    -0.5325444   -0.5728363    0.8361922 
H    -1.6829810    1.5669813    1.1045311 
H     1.2456701    3.4751772   -1.2362709 
C     1.7465106   -1.0644703   -0.5273791 
C     1.1536420   -1.8517321   -1.7145040 
H     1.6734044   -1.6655245    0.4052537 
H     2.8334571   -0.8842574   -0.6942189 
C     2.0970091   -2.9546173   -2.1918211 
O     2.5899028   -2.9046591   -3.4885693 
O     2.5128646   -3.9918794   -1.3561904 
H     2.0963985   -3.9366767   -0.4405955 
N    -0.1831784   -2.3582254   -1.3502486 
H     1.0522524   -1.1567039   -2.5831135 
H    -0.6526719   -2.7279610   -2.2120582 
H    -0.1083970   -3.1633869   -0.6850947 
