24
Energy =
C    -0.2954776    1.9259006    0.6456949 
C    -0.2817077    2.8616674   -0.3308357 
C     0.4843825    2.6661109   -1.4377718 
C     0.4525666    0.8001546    0.5296862 
C     1.2250542    0.6020738   -0.5739637 
C     1.2331255    1.5410684   -1.5598827 
O    -1.0604977    4.0134134   -0.1710355 
H    -1.0187571    4.6546696   -0.9556074 
H     1.8342941    1.3968233   -2.4536493 
H     0.4177964    0.0525332    1.3184591 
H    -0.9179929    2.0864795    1.5191647 
H     0.4981438    3.4083457   -2.2282187 
C     2.0423908   -0.6665057   -0.7146720 
C     1.2287632   -1.9236022   -1.1840359 
H     2.5068927   -0.8904017    0.2727260 
H     2.9166230   -0.4611204   -1.3685758 
C    -0.2895157   -1.7155052   -1.2838419 
O    -1.1109247   -2.2238745   -0.2850589 
O    -0.8700842   -0.9988551   -2.3304307 
H    -0.1677190   -0.5960130   -2.9307160 
N     1.8125896   -2.5397721   -2.4030572 
H     1.3184201   -2.6848984   -0.3730988 
H     1.1409402   -2.5529370   -3.2082694 
H     2.6898604   -2.0806644   -2.7390615 
