24
Energy =
C     1.3642098    1.8311533    1.5522629 
C     0.2592282    2.5337286    1.2319858 
C    -0.4771921    2.1765764    0.1602045 
C     1.7411252    0.7722951    0.7936852 
C     1.0120439    0.3895743   -0.3008598 
C    -0.1085632    1.1180218   -0.6072291 
O    -0.1243257    3.6223099    2.0092309 
H     0.2951753    4.4772215    1.6610902 
H    -0.7473304    0.9038687   -1.4386790 
H     2.6385966    0.2263829    1.0766410 
H     1.9422900    2.1212111    2.4232475 
H    -1.3706272    2.7447505   -0.0762627 
C     1.5621110   -0.8208854   -1.0776150 
C     0.8847521   -1.5311515   -2.3108955 
H     1.7454359   -1.5977872   -0.2984390 
H     2.5842301   -0.5289060   -1.4073317 
C     0.8040257   -3.0446291   -2.1070785 
O     0.2705114   -3.5824345   -0.9432258 
O     1.2374242   -3.9044774   -3.1078738 
H     0.5283115   -3.9561261   -3.8240775 
N    -0.4166584   -0.9606138   -2.6940918 
H     1.5847957   -1.4238937   -3.1745091 
H    -0.2544429   -0.1873992   -3.3830103 
H    -1.0099579   -1.6655322   -3.1943109 
