24
Energy =
C     1.4859229    2.7775608    0.0286381 
C     0.2453821    3.1889585   -0.3006826 
C    -0.6291656    2.3052913   -0.8416376 
C     1.8600414    1.4906797   -0.1769953 
C     0.9933785    0.5792285   -0.7168188 
C    -0.2622225    1.0138779   -1.0514407 
O    -0.1045760    4.5237775   -0.0753828 
H    -1.0559180    4.7531425   -0.3417797 
H    -1.0088329    0.3802945   -1.4831196 
H     2.8702982    1.1954858    0.0989690 
H     2.1783113    3.4931396    0.4598673 
H    -1.6294620    2.6299389   -1.1099336 
C     1.5523311   -0.8425031   -0.9063313 
C     0.7548260   -2.0995839   -1.4198167 
H     2.0045326   -1.1042382    0.0789505 
H     2.4318469   -0.7361469   -1.5799421 
C     0.9814184   -3.3042947   -0.5061036 
O     1.2479855   -4.5508419   -1.0553194 
O     0.8564210   -3.1876677    0.8717356 
H    -0.1190333   -3.2920402    1.1094737 
N    -0.6795871   -1.8529152   -1.6501537 
H     1.2202972   -2.4137955   -2.3863032 
H    -0.8033097   -1.5565026   -2.6487526 
H    -1.2202474   -2.7504750   -1.5832587 
