24
Energy =
C     1.1790809    2.6761835    0.3208527 
C    -0.1263720    2.8062097    0.0012484 
C    -0.7840090    1.7622917   -0.5653748 
C     1.8333847    1.5124046    0.0799253 
C     1.1864472    0.4558715   -0.4900489 
C    -0.1345869    0.5958119   -0.8107871 
O    -0.7668485    4.0209054    0.2658583 
H    -1.7467225    4.0374255    0.0041748 
H    -0.7003658   -0.2092346   -1.2562598 
H     2.8845120    1.4345728    0.3482036 
H     1.6939748    3.5168667    0.7737037 
H    -1.8339635    1.8560447   -0.8219627 
C     1.9957438   -0.8175458   -0.7266062 
C     1.3331809   -2.0341830   -1.4361738 
H     2.3917007   -1.1610679    0.2554905 
H     2.8870799   -0.5355295   -1.3317440 
C     0.3382137   -2.8095048   -0.5687930 
O     0.3762384   -4.1970895   -0.5547806 
O    -0.6118698   -2.1655502    0.2142146 
H    -0.1741047   -1.8528963    1.0681891 
N     0.8233174   -1.6954705   -2.7837125 
H     2.1546878   -2.7703113   -1.5935098 
H    -0.2207687   -1.7631676   -2.8341428 
H     1.1062067   -0.7334873   -3.0863971 
