24
Energy =
C    -0.3439362    2.3741470   -0.7619727 
C     0.2998316    2.7705137   -1.8835387 
C     1.3445977    2.0519122   -2.3551182 
C     0.0524553    1.2526042   -0.1091771 
C     1.1068333    0.5252789   -0.5753976 
C     1.7471624    0.9284152   -1.7080578 
O    -0.1095272    3.9210282   -2.5493372 
H    -0.8160189    3.7007666   -3.2430034 
H     2.5774028    0.3504404   -2.1059805 
H    -0.4817528    0.9377708    0.7836400 
H    -1.1778648    2.9615137   -0.3933909 
H     1.8521792    2.3833065   -3.2547487 
C     1.5375624   -0.7422612    0.1355271 
C     0.8664948   -2.0493984   -0.3919691 
H     1.3642013   -0.6213936    1.2297735 
H     2.6414438   -0.8472978    0.0487217 
C     0.2035875   -2.8379711    0.7326430 
O    -1.0511115   -3.4126485    0.5665935 
O     0.8749374   -3.0276364    1.9330113 
H     0.2997758   -3.6042622    2.5354541 
N    -0.0517490   -1.7746552   -1.5163293 
H     1.6762078   -2.7203738   -0.7591211 
H    -0.3621742   -2.6871936   -1.9295228 
H    -0.9251042   -1.3290685   -1.1460495 
