24
Energy =
C     0.8550746    2.5632340   -1.7037203 
C     0.1380862    2.9880060   -0.6292680 
C    -0.0242667    2.1660797    0.4328246 
C     1.4088274    1.3245305   -1.7070802 
C     1.2561901    0.5005191   -0.6341186 
C     0.5285518    0.9269925    0.4348539 
O    -0.4402792    4.2618065   -0.5911236 
H    -0.3005966    4.8046233   -1.4363944 
H     0.3728560    0.2774387    1.2923792 
H     1.9640685    0.9890223   -2.5788101 
H     0.9820654    3.2100644   -2.5647516 
H    -0.6085563    2.5106565    1.2787032 
C     1.8524510   -0.8932245   -0.6471750 
C     0.9859359   -1.8962995   -1.4394188 
H     1.9918265   -1.2592146    0.3941283 
H     2.8720792   -0.8527894   -1.0905018 
C    -0.4679727   -1.9211615   -0.9414151 
O    -1.4962292   -1.4287958   -1.7371514 
O    -0.7888787   -2.4433885    0.3127563 
H     0.0291418   -2.7680978    0.8041473 
N     1.1039215   -1.5862088   -2.8769223 
H     1.3823381   -2.9222312   -1.2592547 
H     2.0279461   -1.9283055   -3.2304342 
H     0.3705455   -2.1075092   -3.4171976 
