24
 energy: -4.366154045306 gnorm: 0.000633687524 xtb: 6.4.0 (d4b70c2)
C         1.59220288465249    2.58870061600022   -0.18469453815273
C         0.29352498633975    2.71428915823784    0.30592196389118
C        -0.48228546629008    1.56073918188372    0.41541898180391
C         2.09231940845596    1.36161365011518   -0.54870007703529
C         1.31830264568459    0.21360019982965   -0.44401060113068
C         0.02695814293614    0.33885907790966    0.04734781379121
O        -0.18578684335496    3.95891654554862    0.66451618267648
H        -1.10768098693990    3.88358169520485    0.99280392256292
H        -0.59585248673733   -0.53545892665801    0.10796394284320
H         3.09969096966372    1.28359270714167   -0.91992512881375
H         2.19230474627594    3.47709103378761   -0.26910291539726
H        -1.48886503266327    1.63949066064681    0.78558695931678
C         1.90057268377080   -1.11980926107048   -0.81817974228542
C         1.01125704663243   -2.00841548252924   -1.70564342637161
H         2.15343539451723   -1.66579146037330    0.09649259419361
H         2.84965686342015   -0.94622924116155   -1.33597410935743
C        -0.07543054256568   -2.68598937257944   -0.90055343352568
O        -1.17818933084129   -2.19239467835358   -0.84223129061402
O         0.27281052069695   -3.82287979858323   -0.26024388853889
H        -0.52049523543012   -4.14687120162133    0.20783442618794
N         0.42846814518101   -1.27146916365711   -2.81346010000426
H         1.63284409579404   -2.81204009420624   -2.13389111747261
H        -0.18332367568392   -1.88498928493269   -3.33446367675622
H        -0.16560711271038   -0.55070711822368   -2.43003131850308
