24
Energy =
C    -0.9196827    1.8287644   -0.4030717 
C    -0.1808875    2.8856989   -0.0052994 
C     1.1723009    2.7913459    0.0006361 
C    -0.3233251    0.6740699   -0.7956296 
C     1.0424205    0.5636892   -0.7935580 
C     1.7770786    1.6423219   -0.3899488 
O    -0.8371826    4.0552457    0.3920463 
H    -0.2137870    4.8044197    0.6728785 
H     2.8639319    1.5939394   -0.3759155 
H    -0.9803210   -0.1241452   -1.0997872 
H    -2.0008064    1.9192914   -0.4039845 
H     1.7756429    3.6352960    0.3178910 
C     1.8254563   -0.6826348   -1.2167866 
C     1.0564224   -1.9717887   -1.6888087 
H     2.5138728   -0.9241056   -0.3810489 
H     2.5198916   -0.3626318   -2.0292659 
C     1.3631831   -2.2774923   -3.1515747 
O     0.3907578   -2.0924686   -4.1263814 
O     2.6313452   -2.6976693   -3.5313059 
H     2.6358312   -2.8424490   -4.5333181 
N     1.3202934   -3.1330131   -0.7985273 
H    -0.0355509   -1.8384663   -1.6962538 
H     1.7025332   -3.9470570   -1.3403921 
H     2.0253624   -2.9443093   -0.0514624 
