24
Energy =
C    -0.4007667    1.0820021    1.1569460 
C    -0.8992637    2.1288021    0.4602113 
C    -0.4475959    2.3873036   -0.7882169 
C     0.5622872    0.2958365    0.6112785 
C     1.0274271    0.5531934   -0.6441967 
C     0.5131086    1.6042541   -1.3417406 
O    -1.8840611    2.9341103    1.0238402 
H    -1.4678016    3.6949902    1.5489623 
H     0.8570440    1.8161815   -2.3508364 
H     0.9466927   -0.5501676    1.1790695 
H    -0.7876502    0.8756399    2.1490968 
H    -0.8673512    3.2198091   -1.3429133 
C     2.0925037   -0.3315352   -1.2635757 
C     1.5264314   -1.6301734   -1.8959598 
H     2.8380878   -0.6033905   -0.4814905 
H     2.6609640    0.2346970   -2.0336682 
C     0.7521993   -2.4750503   -0.8888548 
O     1.4678139   -3.1440692    0.0941449 
O    -0.6378332   -2.5317156   -0.8428375 
H    -1.0352763   -2.0009531   -1.6017149 
N     0.7633234   -1.3412071   -3.1245024 
H     2.3904962   -2.2778868   -2.1711067 
H     0.0465841   -0.6026977   -2.9465202 
H     1.4094701   -0.9648413   -3.8602983 
