24
Energy =
C     1.3578726    2.6318727   -0.9867995 
C     0.1986523    2.8770671   -0.3346118 
C    -0.4819040    1.8471643    0.2355158 
C     1.8457395    1.3684753   -1.0716694 
C     1.1687460    0.3328834   -0.5037203 
C     0.0001415    0.5815135    0.1510733 
O    -0.2697763    4.1932322   -0.2632672 
H    -1.1501257    4.2933675    0.2297850 
H    -0.5552031   -0.2318716    0.6108758 
H     2.7750742    1.1940159   -1.6085162 
H     1.8893964    3.4592968   -1.4443492 
H    -1.4129820    2.0335462    0.7596092 
C     1.7001956   -1.0831054   -0.5966394 
C     0.9222463   -1.9373572   -1.6354503 
H     1.6294631   -1.5396074    0.4146718 
H     2.7849314   -1.0819463   -0.8499290 
C     1.3944168   -1.7000185   -3.0689139 
O     1.8672127   -0.4558647   -3.4694518 
O     1.3070598   -2.7098794   -4.0179927 
H     1.6298314   -2.3512916   -4.9067104 
N     1.0177100   -3.3622739   -1.2679302 
H    -0.1538013   -1.6512034   -1.6451347 
H     2.0117280   -3.6872654   -1.3405549 
H     0.6804932   -3.5206161   -0.2904049 
