24
Energy =
C     0.4628549    2.6591924   -1.0295877 
C    -0.6428922    2.6632912   -0.2501361 
C    -0.9515615    1.5761650    0.4936690 
C     1.2631363    1.5635270   -1.0716395 
C     0.9616280    0.4668942   -0.3222880 
C    -0.1565852    0.4761743    0.4564582 
O    -1.4605467    3.7877548   -0.2095661 
H    -2.1854492    3.7295952   -0.9163051 
H    -0.4212980   -0.3962554    1.0501980 
H     2.1409535    1.5644159   -1.7126224 
H     0.6995602    3.5389098   -1.6184452 
H    -1.8385459    1.5967691    1.1180491 
C     1.8404751   -0.7659662   -0.3843244 
C     1.5426666   -1.7228209   -1.5794482 
H     1.7693791   -1.3112966    0.5859358 
H     2.9044967   -0.4446530   -0.4374110 
C     1.3195238   -3.1500403   -1.0928491 
O     2.3907835   -4.0276321   -1.0226831 
O     0.0804693   -3.5582620   -0.6142680 
H    -0.5401926   -3.7171268   -1.3932704 
N     0.4357417   -1.2262058   -2.4225705 
H     2.4610456   -1.7678657   -2.2104952 
H     0.3369006   -1.8418834   -3.2643048 
H    -0.4660344   -1.2837417   -1.8906443 
