24
Energy =
C    -0.0791570    1.9478114    0.5399649 
C     0.1735832    2.8322813   -0.4521879 
C     0.9697624    2.4791261   -1.4872179 
C     0.4716798    0.7075952    0.5049247 
C     1.2853921    0.3499327   -0.5267636 
C     1.5261568    1.2415981   -1.5282252 
O    -0.3958733    4.1009653   -0.4144808 
H     0.2078128    4.7502649    0.0777821 
H     2.1560239    0.9671986   -2.3728737 
H     0.2545594    0.0045910    1.3051246 
H    -0.7312972    2.2398051    1.3561216 
H     1.1500192    3.1925689   -2.2845156 
C     1.8745211   -1.0419739   -0.5850545 
C     0.8998286   -2.0509832   -1.2397739 
H     2.1254032   -1.3782565    0.4455833 
H     2.8344612   -1.0333970   -1.1535735 
C     0.5742307   -1.6669561   -2.6756913 
O     1.5851869   -1.5371568   -3.6213701 
O    -0.7300654   -1.3478533   -3.0329921 
H    -0.9289640   -0.4045216   -2.7327031 
N     1.4557921   -3.4201032   -1.1816311 
H    -0.0736634   -2.0155930   -0.6948237 
H     2.3746547   -3.4719857   -0.6814778 
H     0.7929307   -4.0579417   -0.6807648 
