24
Energy =
C     2.0103074    2.6091987   -0.2198015 
C     0.8398761    3.2143427   -0.5025102 
C    -0.2237132    2.4768914   -0.8806689 
C     2.1217775    1.2618684   -0.3230570 
C     1.0579455    0.4887370   -0.7074193 
C    -0.1231827    1.1261510   -0.9872565 
O     0.7262497    4.5966476   -0.3958547 
H     0.9520288    5.0455970   -1.2768367 
H    -1.0135069    0.6239808   -1.2938127 
H     3.0808210    0.8036840   -0.0893678 
H     2.8562227    3.2122052    0.0937325 
H    -1.1614299    2.9801117   -1.0934512 
C     1.3361695   -1.0243053   -0.7839090 
C     0.3352821   -2.1860353   -1.1566982 
H     1.7941500   -1.2814678    0.1994969 
H     2.1877825   -1.1291807   -1.4945471 
C     0.3659123   -3.2980574   -0.1167728 
O     1.2635898   -4.3475699   -0.2585059 
O    -0.3947993   -3.2134831    1.0435023 
H     0.0691123   -2.6027941    1.6981353 
N    -1.0452700   -1.7864126   -1.4410654 
H     0.7259956   -2.6896323   -2.0732123 
H    -1.5007499   -1.3579609   -0.5996831 
H    -1.1094277   -1.2208367   -2.3182161 
