24
Energy =
C    -0.1661691    2.0949270   -0.1979358 
C     0.8118083    2.8812230   -0.7021326 
C     1.9813997    2.3358028   -1.1116779 
C     0.0107938    0.7381691   -0.1175942 
C     1.2240055    0.2004854   -0.4851164 
C     2.1941041    0.9996862   -1.0006828 
O     0.6181479    4.2560766   -0.7975991 
H     0.9264649    4.7233619    0.0477925 
H     3.1418225    0.5788931   -1.3251253 
H    -0.8216125   -0.0486510    0.4676137 
H    -1.0976949    2.5431624    0.1257120 
H     2.7477042    2.9827192   -1.5253258 
C     1.4043728   -1.2970199   -0.3427672 
C     0.3546550   -2.0964690   -1.1703172 
H     1.2901200   -1.5590878    0.7321523 
H     2.4333310   -1.6078500   -0.6267552 
C    -1.0737443   -1.5385104   -1.0550159 
O    -1.2766643   -0.2266138   -0.5780042 
O    -2.1751143   -2.2553937   -1.5075050 
H    -1.8887027   -3.1040482   -1.9746525 
N     0.7704954   -2.1625135   -2.5792167 
H     0.3179778   -3.1335392   -0.7679756 
H     0.8359597   -1.1906707   -2.9682640 
H     1.7177720   -2.6005464   -2.6538953 
