24
Energy =
C     0.0607786    2.0990808    0.6636187 
C    -0.0732502    2.8107612   -0.4789149 
C     0.4311789    2.3307330   -1.6384969 
C     0.6926383    0.8976734    0.6489140 
C     1.1972903    0.4033992   -0.5164602 
C     1.0642622    1.1301561   -1.6615229 
O    -0.7214781    4.0415569   -0.4595396 
H    -1.7144303    3.9268227   -0.6315958 
H     1.4659172    0.7565216   -2.6003198 
H     0.7934946    0.3392604    1.5755285 
H    -0.3379373    2.5021920    1.5884152 
H     0.3267681    2.9182665   -2.5444065 
C     1.8974111   -0.9389402   -0.5470003 
C     1.0135661   -2.0426608   -1.1863773 
H     2.2096852   -1.2467660    0.4757677 
H     2.8423262   -0.8243966   -1.1283865 
C     1.8554687   -3.2489738   -1.5999365 
O     2.0124103   -3.5363325   -2.9493551 
O     2.5036502   -4.0500812   -0.6601127 
H     2.3494794   -3.7217674    0.2809677 
N    -0.1258798   -2.4048879   -0.3073821 
H     0.5963753   -1.6595446   -2.1474820 
H    -0.0767645   -3.4012251    0.0172102 
H    -0.1826919   -1.8076578    0.5498055 
