24
Energy =
C     0.9243989    2.5327390   -0.6837486 
C     2.0251814    2.7201405    0.0847306 
C     2.7212449    1.6512072    0.5183922 
C     0.5214851    1.2777856   -1.0159746 
C     1.2167046    0.1796900   -0.5806991 
C     2.3266284    0.3960782    0.1915779 
O     2.4626057    3.9990589    0.4418039 
H     1.8882087    4.7516796    0.0778044 
H     2.9144401   -0.4426071    0.5586188 
H    -0.3527861    1.2160659   -1.6297254 
H     0.3615278    3.3904499   -1.0381388 
H     3.6013674    1.8136127    1.1318155 
C     0.8866071   -1.2979430   -0.8747431 
C    -0.3203967   -1.8366335   -1.7444618 
H     0.9024540   -1.7836055    0.1088421 
H     1.8056229   -1.6978595   -1.3620430 
C    -1.2783904   -2.8969950   -1.1360529 
O    -2.3315508   -3.3241051   -1.9362625 
O    -1.1652014   -3.4998218    0.1213814 
H    -0.4058823   -3.1983458    0.6956279 
N    -1.0711094   -0.7597280   -2.4090624 
H     0.1636426   -2.4311448   -2.5568595 
H    -1.4686616   -1.1248405   -3.3101373 
H    -1.9102347   -0.5144993   -1.8266171 
