24
Energy =
C     0.0060158    0.8927839    1.5350879 
C    -0.1291090    2.1256705    0.9947471 
C     0.3739602    2.3755020   -0.2436282 
C     0.6390910   -0.0935632    0.8504409 
C     1.1499285    0.1535527   -0.3870699 
C     1.0116854    1.3946574   -0.9305687 
O    -0.7882622    3.1143837    1.7321254 
H    -0.8713618    4.0029662    1.2497512 
H     1.3937709    1.5994337   -1.9290392 
H     0.7313759   -1.0785539    1.3008649 
H    -0.4026508    0.7055602    2.5225400 
H     0.2623501    3.3575909   -0.6904548 
C     1.8486221   -0.9437294   -1.1657576 
C     1.0128131   -1.5691449   -2.3234744 
H     2.1713839   -1.7547308   -0.4756247 
H     2.7989847   -0.5228796   -1.5670007 
C    -0.4198847   -1.0440593   -2.4383682 
O    -0.7052507    0.1025626   -3.1703864 
O    -1.4525299   -1.6923530   -1.7728756 
H    -1.4368657   -1.4222832   -0.8009248 
N     1.7645037   -1.4087507   -3.5829065 
H     0.8897871   -2.6582910   -2.1145894 
H     2.5852767   -2.0594491   -3.5792591 
H     1.1659192   -1.6982206   -4.3948554 
