24
Energy =
C     2.0961733    2.4608484   -1.4149118 
C     0.9441207    2.8472648   -2.0146943 
C    -0.1063663    2.0029422   -2.0410192 
C     2.1892399    1.2334635   -0.8464360 
C     1.1339652    0.3618514   -0.8636430 
C    -0.0225080    0.7721781   -1.4739109 
O     0.8118107    4.1047857   -2.6109611 
H     1.6440330    4.6816801   -2.5503422 
H    -0.9038486    0.1694327   -1.5430433 
H     3.1274932    0.9525345   -0.3718471 
H     2.9477860    3.1326668   -1.3875848 
H    -1.0216329    2.3267677   -2.5254699 
C     1.3792180   -0.9939444   -0.1776709 
C     0.3650735   -2.1921248   -0.0873685 
H     1.7228073   -0.7516388    0.8541662 
H     2.2913593   -1.4085331   -0.6647334 
C     0.1228410   -2.6144979    1.3592744 
O     0.9126296   -3.6019917    1.9300942 
O    -0.8147865   -1.9605642    2.1486970 
H    -0.4150954   -1.0973226    2.4854286 
N    -0.8893723   -1.9911457   -0.8282290 
H     0.8794192   -3.0768162   -0.5356097 
H    -1.3117669   -2.9272273   -1.0402594 
H    -1.5885134   -1.5177797   -0.2038346 
