24
Energy =
C     0.5989608    2.6289296   -1.5968852 
C     0.2176192    3.0613462   -0.3652581 
C     0.3608172    2.2454637    0.7038618 
C     1.1246419    1.3875104   -1.7510615 
C     1.2744298    0.5665864   -0.6742052 
C     0.8860161    1.0027540    0.5562784 
O    -0.3193320    4.3384746   -0.1698948 
H    -0.4285835    4.8749620   -1.0234463 
H     0.9807456    0.3582092    1.4255409 
H     1.4119469    1.0476413   -2.7420719 
H     0.4799354    3.2725528   -2.4613378 
H     0.0432196    2.5988811    1.6785340 
C     1.8576370   -0.8180012   -0.8488089 
C     0.8638788   -1.9611722   -1.2842393 
H     2.3484314   -1.1250082    0.1019911 
H     2.7125295   -0.7229487   -1.5503290 
C    -0.6374489   -1.6497302   -1.4282891 
O    -1.1941457   -0.4043823   -1.1683884 
O    -1.5001035   -2.6781775   -1.7840112 
H    -2.4448781   -2.3170008   -1.8133898 
N     1.3930176   -2.7148215   -2.4518222 
H     0.8361825   -2.6829518   -0.4368694 
H     0.7244159   -2.6825193   -3.2600781 
H     2.3104126   -2.3696139   -2.8126677 
