24
Energy =
C    -0.0235782    1.2506200    1.4341766 
C     0.5143450    2.3933655    0.9496635 
C     1.3676043    2.3482091   -0.0989002 
C     0.2829648    0.0570289    0.8647493 
C     1.1360429    0.0039351   -0.1965833 
C     1.6791978    1.1587473   -0.6739428 
O     0.1972594    3.6146261    1.5360176 
H    -0.6167883    4.0251972    1.0921916 
H     2.3687078    1.1373664   -1.5145634 
H    -0.1555096   -0.8517477    1.2688498 
H    -0.6957394    1.3006382    2.2841306 
H     1.8015049    3.2711703   -0.4684276 
C     1.4822249   -1.3207950   -0.8420260 
C     0.7975519   -1.4969736   -2.2208252 
H     1.2108936   -2.1760539   -0.1815888 
H     2.5890349   -1.3744636   -0.9614323 
C     1.3877156   -2.6844920   -2.9578379 
O     2.0527367   -2.4974353   -4.1622380 
O     1.2891380   -3.9643440   -2.4300270 
H     0.4060236   -4.3537200   -2.7253476 
N    -0.6668378   -1.6536783   -2.0854686 
H     1.0302926   -0.6083364   -2.8547912 
H    -0.9928839   -1.5446181   -1.0973915 
H    -1.1484601   -0.9050477   -2.6377215 
