24
Energy =
C    -0.2177451    2.3728864   -0.4050998 
C     0.4590782    2.8693262   -1.4649747 
C     1.4717310    2.1470614   -2.0147357 
C     0.1095091    1.1629545    0.1138867 
C     1.1297429    0.4397565   -0.4253657 
C     1.8035832    0.9359784   -1.4995129 
O     0.0922431    4.1205531   -1.9691016 
H     0.6383684    4.4188220   -2.7703028 
H     2.6039856    0.3610829   -1.9587801 
H    -0.4531861    0.7740799    0.9576593 
H    -1.0283024    2.9557644    0.0186702 
H     2.0145481    2.5332352   -2.8709968 
C     1.4840525   -0.9239818    0.1354747 
C     0.7600329   -2.1198980   -0.5563706 
H     1.3012113   -0.9264802    1.2337146 
H     2.5836381   -1.0717193    0.0439189 
C     0.0084338   -2.9842731    0.4479953 
O     0.6085514   -4.1256056    0.9593195 
O    -1.2399558   -2.6061740    0.9272993 
H    -1.1234789   -1.8807016    1.6167821 
N    -0.1017650   -1.6728004   -1.6693469 
H     1.5459576   -2.7900331   -0.9779097 
H    -0.4368709   -2.5129685   -2.1993239 
H    -0.9657549   -1.2216358   -1.2834128 
