24
Energy =
C    -0.9573060    1.9687108   -0.4429383 
C    -0.0673272    2.8135423   -1.0131198 
C     1.2096458    2.4152863   -1.2170546 
C    -0.5742214    0.7185686   -0.0787066 
C     0.7113591    0.3137237   -0.2753029 
C     1.6003220    1.1664424   -0.8559458 
O    -0.4645283    4.0938411   -1.3856506 
H    -0.8129782    4.0982495   -2.3379174 
H     2.6277531    0.8531149   -1.0347476 
H    -1.3016740    0.0478813    0.3713328 
H    -1.9761877    2.3028640   -0.2797888 
H     1.9140589    3.1044789   -1.6705213 
C     1.1416436   -1.0853112    0.0999240 
C     1.0161102   -2.0633734   -1.1012386 
H     0.5390323   -1.4510282    0.9615167 
H     2.1813118   -1.0506002    0.4979199 
C     2.3530867   -2.7146543   -1.4540326 
O     3.5361978   -1.9883545   -1.3610023 
O     2.4000909   -3.9943475   -1.9938083 
H     3.3662313   -4.2278612   -2.1838816 
N    -0.0284173   -3.0556410   -0.7837674 
H     0.7284942   -1.5144628   -2.0289779 
H    -0.9646188   -2.5946159   -0.8630674 
H    -0.0191964   -3.8194029   -1.5045717 
