24
Energy =
C    -0.7169668    2.1146494   -1.1087432 
C    -0.6534574    2.2820285    0.2389563 
C     0.2236727    1.5500611    0.9624498 
C     0.0973362    1.2198670   -1.7241809 
C     0.9847405    0.4851624   -0.9975467 
C     1.0419052    0.6559120    0.3520598 
O    -1.4750989    3.1988684    0.9027638 
H    -2.1194830    3.6932302    0.2958253 
H     1.7329745    0.0710989    0.9541964 
H     0.0310382    1.0914873   -2.8009288 
H    -1.4205671    2.6946538   -1.6957854 
H     0.2586064    1.6857260    2.0379005 
C     1.8883527   -0.5223866   -1.6801385 
C     1.3021729   -1.9568945   -1.7061365 
H     2.8748749   -0.5428650   -1.1624427 
H     2.1065437   -0.1961840   -2.7206081 
C     1.1497343   -2.5457342   -0.3117173 
O    -0.0189273   -2.3786646    0.4249607 
O     2.2294347   -3.1905288    0.2784779 
H     1.9467594   -3.5153483    1.1943897 
N     0.0513996   -2.0118469   -2.4861567 
H     2.0463199   -2.6219325   -2.2002591 
H    -0.7125351   -1.5093339   -1.9734967 
H     0.1794183   -1.5477930   -3.4150125 
