24
Energy =
C     1.6073002    2.3023038   -1.4660276 
C     1.0086024    2.8680624   -0.3938665 
C     0.5209251    2.0765659    0.5985874 
C     1.7281324    0.9540124   -1.5539526 
C     1.2475399    0.1557270   -0.5611536 
C     0.6382363    0.7270356    0.5151898 
O     0.9103448    4.2622338   -0.3357573 
H     0.4203701    4.6065314    0.4828649 
H     0.2355239    0.1104440    1.3139772 
H     2.1995873    0.5164993   -2.4293580 
H     1.9829602    2.9430111   -2.2560522 
H     0.0331887    2.5206920    1.4597309 
C     1.3638072   -1.3532700   -0.6665658 
C     0.3366205   -1.9645851   -1.6436554 
H     1.2401754   -1.8224859    0.3349244 
H     2.3915008   -1.6174946   -1.0000306 
C    -1.0953214   -1.5631784   -1.2950336 
O    -1.7176734   -0.4938823   -1.9271545 
O    -1.7808716   -2.2483720   -0.2998916 
H    -1.4730566   -1.9133713    0.6001096 
N     0.7180585   -1.6121227   -3.0249369 
H     0.3606853   -3.0736910   -1.5283933 
H     1.5089427   -2.2259384   -3.3312731 
H    -0.0798608   -1.8136093   -3.6763550 
