24
Energy =
C     0.6508360    1.6921094    1.0751058 
C     1.4767421    2.5184703    0.3794628 
C     2.1552112    2.0411330   -0.6880908 
C     0.5119528    0.3943396    0.7029179 
C     1.2052254   -0.0914075   -0.3636534 
C     2.0235837    0.7432653   -1.0630377 
O     1.6461095    3.8592876    0.7391789 
H     1.0876133    4.1472054    1.5351962 
H     2.5636404    0.3841723   -1.9369445 
H    -0.1600227   -0.2501863    1.2641942 
H     0.0970489    2.0685358    1.9283934 
H     2.7986611    2.7159175   -1.2424625 
C     1.0336767   -1.5339033   -0.7911472 
C    -0.0842707   -1.6962990   -1.8417197 
H     0.7990765   -2.1590490    0.0988137 
H     1.9899389   -1.9384510   -1.1931803 
C     0.2808857   -0.9932301   -3.1484216 
O    -0.2476446    0.2629167   -3.4142612 
O     1.2127983   -1.5290893   -4.0359373 
H     1.4494517   -2.4760008   -3.7763679 
N    -0.3289910   -3.1350443   -2.0424523 
H    -1.0172046   -1.2052045   -1.4742129 
H    -0.7512915   -3.5404306   -1.1725032 
H    -1.0590024   -3.2530542   -2.7856362 
