24
Energy =
C     1.5798063    2.6284718   -0.9962749 
C     0.3081756    3.0034416   -0.7242408 
C    -0.5736463    2.1026862   -0.2338550 
C     1.9739536    1.3463656   -0.7841062 
C     1.0918666    0.4344609   -0.2879773 
C    -0.1864793    0.8197025   -0.0171758 
O    -0.0918059    4.3171372   -0.9440752 
H    -0.4476846    4.4300878   -1.8869206 
H    -0.9041607    0.0893082    0.3543490 
H     2.9969687    1.0587767   -1.0119355 
H     2.2773896    3.3642466   -1.3823297 
H    -1.5895141    2.4178937   -0.0200535 
C     1.5113733   -1.0022271   -0.0503737 
C     0.9801746   -2.0250774   -1.1053464 
H     1.1794938   -1.2776996    0.9773251 
H     2.6207420   -1.0741022   -0.0086072 
C     0.3776142   -3.2473699   -0.4236045 
O    -0.5527653   -3.1043438    0.5992371 
O     0.7356664   -4.5231536   -0.8374842 
H     0.2257342   -4.7474059   -1.6792091 
N     0.0229285   -1.4010317   -2.0430579 
H     1.8537715   -2.4131682   -1.6810792 
H     0.5410167   -0.7427372   -2.6728611 
H    -0.3833010   -2.1326671   -2.6740897 
