24
Energy =
C     0.6802462    2.8222475   -0.4683811 
C    -0.3527278    2.7281882    0.4001540 
C    -0.6717089    1.5198379    0.9367850 
C     1.4000268    1.7213358   -0.8039277 
C     1.0906588    0.5123416   -0.2616582 
C     0.0445431    0.4156902    0.6050841 
O    -1.0708109    3.8849006    0.7201862 
H    -1.8285438    3.7325567    1.3767929 
H    -0.2295983   -0.5481780    1.0295400 
H     2.2194934    1.8140932   -1.5125174 
H     0.9205192    3.7905187   -0.8943845 
H    -1.5027035    1.4333642    1.6286313 
C     1.8746847   -0.7222213   -0.6482543 
C     1.3626013   -1.5510941   -1.8813241 
H     1.9519961   -1.3744826    0.2531585 
H     2.9306779   -0.4267397   -0.8405615 
C     1.2583159   -3.0273794   -1.5237708 
O     0.2013017   -3.4879660   -0.7454797 
O     2.2593833   -3.9096594   -1.9072244 
H     2.0273191   -4.8385920   -1.5789541 
N     0.1307994   -1.0375103   -2.5407074 
H     2.1678221   -1.5213906   -2.6516762 
H    -0.6222128   -1.7674345   -2.5718887 
H    -0.3071938   -0.2070308   -2.0916810 
