24
 energy: -4.356484542084 gnorm: 0.000485575159 xtb: 6.4.0 (d4b70c2)
C        -0.29655737855701    1.69239764941305    0.46779025864544
C         0.09511008032213    2.76320614753511   -0.33620762756011
C         1.08564280853058    2.54333429438098   -1.29283281771543
C         0.28631246878072    0.45710178351551    0.31766562497303
C         1.27678260075176    0.24442767583998   -0.63062517507027
C         1.66147588878354    1.30414929342704   -1.43823549509494
O        -0.46955337019433    4.01766755118429   -0.21342642007669
H        -1.15970371564700    4.01053459566990    0.48370732005225
H         2.41475665844384    1.14491886726398   -2.19029086755765
H        -0.04757492207101   -0.37369055893450    0.91667556369679
H        -1.06912796533573    1.84099022796834    1.20082186106688
H         1.38220910528421    3.36730260859682   -1.91701708998448
C         1.86831728594840   -1.11811932112740   -0.81542774550787
C         0.96868054584859   -2.04948253181381   -1.63452040611437
H         2.05091634163613   -1.56245780220828    0.16890553234857
H         2.84715167625592   -1.02960444908297   -1.29659397005838
C        -0.35682664984531   -2.23737324757032   -0.92419020643981
O        -0.37593938919223   -2.96809873731783    0.04236981259714
O        -1.41146927028823   -1.53499882219251   -1.40094345301494
H        -1.13329183252634   -0.97979921422244   -2.16466319062666
N         0.75699678766415   -1.55129103902006   -2.98725211430433
H         1.44170486468827   -3.04395017209445   -1.69635259708036
H         1.63935272035178   -1.42517250870303   -3.46262113218037
H         0.21039368777555   -2.21109262624538   -3.52434622974446
