24
Energy =
C     0.8450323    0.4999711    1.7568859 
C     0.7666922    1.8225774    1.4839699 
C     0.9835393    2.2682345    0.2252898 
C     1.1517101   -0.3820952    0.7722682 
C     1.3822323    0.0592937   -0.4968973 
C     1.2900258    1.3919414   -0.7650095 
O     0.4513258    2.7238884    2.4953425 
H     1.2918992    3.0592358    2.9528543 
H     1.4503075    1.7610592   -1.7745399 
H     1.2027808   -1.4435879    1.0048055 
H     0.6526157    0.1535539    2.7668052 
H     0.9001626    3.3295775    0.0169209 
C     1.7000407   -0.9255123   -1.6052005 
C     0.4419423   -1.3648389   -2.3850393 
H     2.2025144   -1.8250050   -1.1822225 
H     2.4323971   -0.4734398   -2.3094585 
C    -0.5796193   -2.0341988   -1.4710579 
O    -0.2052941   -3.1289910   -0.7019718 
O    -1.8893991   -1.5781977   -1.3964199 
H    -1.9316825   -0.8437933   -0.7046481 
N    -0.1114985   -0.2062571   -3.1104376 
H     0.7424626   -2.1496326   -3.1164576 
H     0.5403332    0.0499923   -3.8882587 
H    -1.0130477   -0.4847615   -3.5693810 
