24
Energy =
C    -0.3064494    2.1033927    0.1688596 
C     0.0804014    2.8571750   -0.8948214 
C     1.0252558    2.3858683   -1.7394652 
C     0.2559071    0.8868635    0.3837098 
C     1.2165471    0.4169504   -0.4589600 
C     1.5929779    1.1714717   -1.5280623 
O    -0.4757636    4.1162454   -1.1426120 
H    -1.1907052    4.3904514   -0.4776758 
H     2.3401945    0.8029297   -2.2273963 
H    -0.0698371    0.2919700    1.2333361 
H    -1.0684775    2.4705818    0.8477707 
H     1.3154198    2.9919591   -2.5908359 
C     1.8261750   -0.9505163   -0.2342784 
C     1.0108901   -2.0663374   -0.9354383 
H     1.8671334   -1.1549776    0.8597308 
H     2.8815252   -0.9638190   -0.5863845 
C     0.9298894   -1.8574550   -2.4491338 
O    -0.3004455   -1.5907766   -3.0348560 
O     2.0671186   -1.8916603   -3.2575081 
H     2.8968363   -2.1044907   -2.7253654 
N     1.5287876   -3.4059954   -0.5623999 
H    -0.0472691   -2.0002139   -0.5861428 
H     1.9315813   -3.9189577   -1.3843849 
H     2.2786623   -3.3662316    0.1682108 
