24
Energy =
C     0.4502710    2.3167920   -1.8587217 
C     0.0477991    2.8734257   -0.6853900 
C     0.2613439    2.2133132    0.4752676 
C     1.0623222    1.1055606   -1.8643728 
C     1.2771174    0.4387459   -0.6963477 
C     0.8728979    1.0016007    0.4759505 
O    -0.5849591    4.1199504   -0.6434242 
H    -0.7127580    4.5493119   -1.5534944 
H     1.0347721    0.4904008    1.4208483 
H     1.3800477    0.6734224   -2.8104205 
H     0.2838412    2.8388549   -2.7948443 
H    -0.0646221    2.6693708    1.4037584 
C     1.9540474   -0.9156311   -0.7099383 
C     1.0097603   -2.0339250   -1.2208750 
H     2.3381920   -1.1805825    0.3005050 
H     2.8493418   -0.8488404   -1.3705424 
C     1.8022933   -3.2825168   -1.5871292 
O     2.1717214   -3.5030870   -2.9061732 
O     2.2389293   -4.1640187   -0.6055032 
H     3.0459783   -3.7717615   -0.1444405 
N    -0.0835408   -2.3064381   -0.2549028 
H     0.5477467   -1.7096488   -2.1824618 
H    -0.0458846   -3.2938452    0.1010880 
H    -0.0364528   -1.6931920    0.5902616 
