24
Energy =
C     1.1797570    1.7658878    0.9149567 
C     0.4040739    2.7220947    0.3556169 
C    -0.0248131    2.5845295   -0.9193187 
C     1.5395376    0.6722944    0.1959481 
C     1.1088008    0.5218211   -1.0887002 
C     0.3264924    1.4915757   -1.6433841 
O     0.0441846    3.8468259    1.0919701 
H     0.7162209    4.5936186    0.9566977 
H    -0.0236833    1.4004826   -2.6674740 
H     2.1609186   -0.0874990    0.6636867 
H     1.5043529    1.8796793    1.9436338 
H    -0.6546824    3.3543233   -1.3511619 
C     1.5123213   -0.7000314   -1.8954972 
C     0.6552745   -1.9642790   -1.6131028 
H     2.5811948   -0.9306751   -1.6837162 
H     1.4669250   -0.4726380   -2.9832181 
C     0.7784442   -2.4441618   -0.1753470 
O     1.7088691   -3.4248856    0.1437467 
O     0.0094974   -1.8937414    0.8405081 
H    -0.8276815   -2.4484177    0.9331830 
N    -0.7602299   -1.7840900   -2.0077714 
H     1.0984164   -2.7915079   -2.2171183 
H    -0.9509498   -0.8353000   -2.4016544 
H    -1.0153923   -2.4733280   -2.7542773 
