24
Energy =
C     0.0993667    1.9269862    1.0170454 
C    -0.2736566    2.7665066    0.0230221 
C     0.0994586    2.5126430   -1.2524188 
C     0.8601605    0.8372589    0.7408124 
C     1.2523337    0.5845745   -0.5387873 
C     0.8619974    1.4267104   -1.5358209 
O    -1.0472664    3.8875409    0.3117157 
H    -0.4595093    4.6850432    0.5277360 
H     1.1451057    1.2247268   -2.5659182 
H     1.1469234    0.1700251    1.5489722 
H    -0.2218798    2.1325564    2.0322124 
H    -0.2243833    3.1799684   -2.0435397 
C     2.0855878   -0.6388775   -0.8609803 
C     1.2879102   -1.8284748   -1.4767771 
H     2.6145774   -0.9897201    0.0533589 
H     2.9086159   -0.3289049   -1.5454931 
C    -0.2256156   -1.5998014   -1.6160532 
O    -0.7663403   -1.2505473   -2.8483801 
O    -1.0798080   -1.7218450   -0.5205602 
H    -0.5710437   -1.8794866    0.3355827 
N     1.9223345   -2.2065314   -2.7534454 
H     1.3815089   -2.6955028   -0.7830233 
H     1.4351660   -3.0446874   -3.1541595 
H     1.7786120   -1.4358038   -3.4503703 
