24
Energy =
C     0.5165005    2.6815977   -0.8905447 
C    -0.5828785    2.6959108   -0.0906663 
C    -0.9278907    1.5805027    0.5917710 
C     1.2649246    1.5547476   -1.0002670 
C     0.9236933    0.4336645   -0.3070185 
C    -0.1836033    0.4502014    0.4852827 
O    -1.3755241    3.8396015    0.0462559 
H    -1.0567266    4.6310324   -0.5021655 
H    -0.4833824   -0.4380014    1.0348677 
H     2.1319453    1.5489220   -1.6558687 
H     0.7962533    3.5687627   -1.4483285 
H    -1.8108102    1.6055724    1.2215171 
C     1.7492340   -0.8300472   -0.4474163 
C     1.4553228   -1.6654649   -1.7321700 
H     1.6310331   -1.4529897    0.4686537 
H     2.8259891   -0.5485429   -0.4431062 
C     1.1488746   -3.1196663   -1.3968917 
O     2.1909582   -3.9950484   -1.1312594 
O    -0.1590110   -3.5643234   -1.2533431 
H    -0.5050135   -3.2828729   -0.3490081 
N     0.4100806   -1.0421030   -2.5699454 
H     2.3959532   -1.7079363   -2.3299960 
H     0.3073912   -1.5948730   -3.4551761 
H    -0.5169650   -1.1180931   -2.0864677 
