24
Energy =
C     0.5998312    2.2242641    0.6390478 
C     0.6013756    3.0202980   -0.4547076 
C     0.9692124    2.5067285   -1.6591682 
C     0.9693484    0.9224869    0.5424359 
C     1.3520001    0.4065984   -0.6583706 
C     1.3394634    1.2051548   -1.7613713 
O     0.2225100    4.3591993   -0.3137139 
H     0.2135665    4.8796689   -1.1842443 
H     1.6121630    0.8028620   -2.7334173 
H     0.9435962    0.2936916    1.4286164 
H     0.2909504    2.6399610    1.5921399 
H     0.9616270    3.1335190   -2.5444875 
C     1.7363371   -1.0560853   -0.7750734 
C     0.5369519   -2.0256793   -1.0271035 
H     2.2590177   -1.3666682    0.1572236 
H     2.5046903   -1.1647966   -1.5725767 
C    -0.8383854   -1.3620847   -1.0085041 
O    -1.2758950   -0.6046446   -2.0895642 
O    -1.6384153   -1.4468984    0.1247293 
H    -2.1259759   -2.3312131    0.1098951 
N     0.7440381   -2.7867628   -2.2708028 
H     0.5109348   -2.7555014   -0.1862242 
H     0.7921117   -2.1257004   -3.0835747 
H     1.6514101   -3.3077105   -2.2242170 
