24
Energy =
C    -1.6044807    0.8980386   -0.2627764 
C    -1.2742321    2.1442773   -0.6727443 
C     0.0175938    2.4523449   -0.9305457 
C    -0.6429342   -0.0481995   -0.1152003 
C     0.6605480    0.2550253   -0.3709527 
C     0.9849510    1.5113862   -0.7854709 
O    -2.2631950    3.1110460   -0.8237724 
H    -2.6494976    3.0836241   -1.7614001 
H     2.0183022    1.7680691   -1.0097991 
H    -0.9224442   -1.0482097    0.2060221 
H    -2.6433667    0.6666203   -0.0547022 
H     0.2686947    3.4562251   -1.2559995 
C     1.7322837   -0.8049467   -0.2386424 
C     1.8514969   -1.6609069   -1.5123169 
H     1.5028222   -1.4685369    0.6245924 
H     2.7168096   -0.3367594   -0.0102076 
C     2.3048666   -0.8365369   -2.7103231 
O     1.4803558   -0.7124759   -3.8229053 
O     3.5408021   -0.1988285   -2.7024215 
H     3.6654340    0.2866532   -3.5812549 
N     2.7595374   -2.7860904   -1.2309145 
H     0.8450503   -2.0669484   -1.7688227 
H     2.7835366   -3.4217260   -2.0640661 
H     3.7367409   -2.4182200   -1.1195254 
