24
Energy =
C     0.6206916    2.4243684    0.1687009 
C    -0.3694253    2.6986185   -0.7115729 
C    -0.6018167    1.8640124   -1.7505157 
C     1.3782153    1.3080303    0.0173010 
C     1.1486212    0.4619628   -1.0253946 
C     0.1511701    0.7457809   -1.9086630 
O    -1.1441502    3.8433048   -0.5525708 
H    -1.9578480    3.6493311    0.0206313 
H    -0.0472746    0.0833146   -2.7475542 
H     2.1682129    1.0987638    0.7341667 
H     0.8024451    3.1079166    0.9912139 
H    -1.3919242    2.1020188   -2.4544946 
C     1.9788099   -0.7908055   -1.1936266 
C     1.2357724   -2.0575821   -0.6993816 
H     2.9537755   -0.6955431   -0.6633400 
H     2.2418422   -0.9045329   -2.2705784 
C     1.9533300   -3.3274277   -1.1245717 
O     3.3413066   -3.3837777   -1.1520553 
O     1.2259906   -4.4676510   -1.4310612 
H     0.9884810   -4.9277645   -0.5641603 
N     1.0599325   -2.0230620    0.7631363 
H     0.2355190   -2.1132874   -1.1884479 
H     1.9875226   -1.8786756    1.2306463 
H     0.4438988   -1.2189139    1.0279505 
