24
Energy =
C     0.2217849    2.4940557   -0.7825481 
C     0.7331859    2.7019571    0.4526408 
C     1.5459293    1.7771263    1.0133018 
C     0.5160474    1.3550158   -1.4596990 
C     1.3338186    0.4193973   -0.9017590 
C     1.8448950    0.6355756    0.3423071 
O     0.4284765    3.8703640    1.1438590 
H    -0.4065296    3.7478360    1.7059918 
H     2.4937327   -0.1034829    0.8069050 
H     0.0973998    1.2001686   -2.4507170 
H    -0.4202682    3.2486053   -1.2240230 
H     1.9559206    1.9609258    2.0006381 
C     1.6511762   -0.8568295   -1.6489488 
C     0.5289752   -1.9068490   -1.5063144 
H     2.6074515   -1.2985841   -1.2814618 
H     1.8199864   -0.6136855   -2.7223507 
C     0.7330977   -3.0465962   -2.4960176 
O     1.8805783   -3.8280993   -2.4546400 
O    -0.2106840   -3.2830869   -3.4877319 
H    -0.0871505   -2.6094745   -4.2289512 
N     0.5004345   -2.3951910   -0.1155824 
H    -0.4535626   -1.4482592   -1.7685349 
H     0.1088977   -1.6488854    0.5057541 
H    -0.1613522   -3.2050778   -0.0417384 
