24
Energy =
C     0.5643858    2.5299553   -0.1210380 
C    -0.3752959    2.1393419    0.7689476 
C    -0.5219969    0.8290875    1.0678446 
C     1.3592004    1.6083605   -0.7231454 
C     1.2165200    0.2830306   -0.4331534 
C     0.2685655   -0.0998461    0.4711675 
O    -1.1767788    3.0864171    1.3941800 
H    -2.0352486    3.2478447    0.8767382 
H     0.1421384   -1.1466756    0.7347932 
H     2.1110500    1.9488128   -1.4330145 
H     0.6779324    3.5882899   -0.3383683 
H    -1.2699464    0.5367618    1.7992784 
C     2.1044199   -0.7525099   -1.1002226 
C     1.3557761   -1.5227415   -2.2324743 
H     2.4576329   -1.4601717   -0.3167047 
H     3.0235274   -0.2606062   -1.5070376 
C     1.0556326   -0.6792391   -3.4673248 
O     1.5938088    0.5897399   -3.5803854 
O     0.2778702   -1.1395710   -4.5274730 
H     0.3720657   -2.1480274   -4.6108613 
N     2.1319868   -2.6704365   -2.6806825 
H     0.3849684   -1.8898700   -1.8267817 
H     2.2191757   -3.3775225   -1.9002240 
H     1.5435033   -3.0603420   -3.4725392 
