24
Energy =
C     1.7052395    2.6815144   -0.9193913 
C     0.6105314    3.0771291   -0.2295023 
C    -0.1315543    2.1677065    0.4425668 
C     2.0581803    1.3707336   -0.9458020 
C     1.3161298    0.4494337   -0.2700130 
C     0.2156054    0.8556145    0.4217843 
O     0.2506184    4.4207754   -0.2065146 
H    -0.3790857    4.6355841   -0.9718296 
H    -0.3933578    0.1294075    0.9536177 
H     2.9358857    1.0659753   -1.5094638 
H     2.2951310    3.4231219   -1.4472804 
H    -1.0033283    2.5004941    0.9951592 
C     1.6899654   -1.0189776   -0.3074304 
C     0.8727192   -1.8852765   -1.3220573 
H     1.5976130   -1.4201367    0.7280413 
H     2.7732849   -1.1228686   -0.5400796 
C     0.2278625   -3.0900553   -0.6388577 
O     0.9831135   -3.8961068    0.2035592 
O    -1.0929569   -3.4403233   -0.8894180 
H    -1.6835910   -2.9316314   -0.2489203 
N    -0.1138295   -1.0688192   -2.0592380 
H     1.5862833   -2.3328970   -2.0518372 
H     0.3981694   -0.4033391   -2.6849455 
H    -0.6651123   -1.6869642   -2.7028395 
