24
Energy =
C    -0.2416808    2.1841668   -1.4446829 
C    -1.2418136    1.9406882   -0.5669123 
C    -1.1160789    0.9495074    0.3453985 
C     0.8885002    1.4322484   -1.4160716 
C     1.0229957    0.4342381   -0.4980481 
C     0.0101937    0.1921374    0.3792512 
O    -2.3974876    2.7139299   -0.5986472 
H    -3.0885972    2.3034479   -1.2170664 
H     0.0966895   -0.6043017    1.1145678 
H     1.6833107    1.6280973   -2.1358161 
H    -0.3554973    2.9856471   -2.1673969 
H    -1.9231308    0.7714511    1.0482606 
C     2.2690117   -0.4234658   -0.4805332 
C     2.1169546   -1.6781522   -1.3608444 
H     2.4993035   -0.7372905    0.5624321 
H     3.1515651    0.1654945   -0.8209401 
C     1.8637956   -1.3264386   -2.8211297 
O     2.7049978   -0.4489286   -3.4921770 
O     0.7696904   -1.8561915   -3.4880055 
H    -0.0555026   -1.3403828   -3.2217814 
N     3.3191704   -2.5125696   -1.1902638 
H     1.2256802   -2.2529903   -1.0162381 
H     3.2064487   -3.3954942   -1.7459530 
H     4.1444378   -2.0175513   -1.6090336 
