24
Energy =
C     0.2760926    2.3818279   -0.0385659 
C    -0.3419031    2.6644811   -1.2083194 
C    -0.1825466    1.8453829   -2.2731935 
C     1.0523086    1.2738769    0.0721042 
C     1.2202961    0.4463166   -0.9962341 
C     0.5920511    0.7349811   -2.1700537 
O    -1.1381884    3.8003547   -1.3182983 
H    -2.1007492    3.5858380   -1.0822355 
H     0.7067259    0.0821034   -3.0317122 
H     1.5319111    1.0500913    1.0217329 
H     0.1427089    3.0482898    0.8065616 
H    -0.6790256    2.0890743   -3.2062224 
C     2.0668328   -0.8004264   -0.8705161 
C     1.2318732   -2.0069960   -0.3981520 
H     2.9053581   -0.6297670   -0.1575836 
H     2.5456601   -1.0275059   -1.8496528 
C     2.0047835   -3.3049292   -0.5669424 
O     1.4600659   -4.3486298   -1.3035214 
O     3.2566868   -3.4625711    0.0133556 
H     3.5996455   -4.3896253   -0.2048145 
N     0.8102362   -1.7889280    0.9985685 
H     0.3314853   -2.1024122   -1.0503140 
H     0.1719631   -2.5681055    1.2890056 
H     1.6496914   -1.8531247    1.6246396 
