24
Energy =
C     0.8046048    2.6220970   -1.2318908 
C    -0.1271287    2.7217581   -0.2469430 
C    -0.3633771    1.6619834    0.5589016 
C     1.4964511    1.4664050   -1.4020342 
C     1.2609367    0.3987526   -0.5907726 
C     0.3229218    0.5032468    0.3908352 
O    -0.8547006    3.8984262   -0.0416388 
H    -0.6355050    4.6394526   -0.6985196 
H     0.1164358   -0.3386667    1.0470095 
H     2.2238489    1.3919278   -2.2074259 
H     0.9932289    3.4635015   -1.8897812 
H    -1.1115686    1.7539020    1.3386519 
C     2.0233264   -0.8982837   -0.7736634 
C     1.1986018   -1.9740571   -1.5393532 
H     2.2915037   -1.2665013    0.2413391 
H     2.9901190   -0.7259455   -1.2979823 
C     1.1472901   -1.7095939   -3.0505912 
O     0.9313071   -0.4249861   -3.5364314 
O     1.2437555   -2.7500743   -3.9680878 
H     1.1421205   -2.3780557   -4.9034045 
N     1.6810763   -3.3377818   -1.1933294 
H     0.1329248   -1.9080686   -1.2240790 
H     2.0778946   -3.8357921   -2.0265058 
H     2.4457749   -3.3403662   -0.4797577 
