24
Energy =
C    -0.7892891    1.8040966    0.2636165 
C    -0.4636625    2.6747562   -0.7186940 
C     0.5762367    2.3931456   -1.5488929 
C    -0.0854777    0.6557319    0.4256867 
C     0.9598994    0.3713274   -0.3992373 
C     1.2835160    1.2453363   -1.3918515 
O    -1.2135753    3.8474318   -0.8546341 
H    -0.9059922    4.4499686   -1.6102008 
H     2.1098146    1.0318873   -2.0656274 
H    -0.3688330   -0.0357681    1.2156391 
H    -1.6226471    2.0367671    0.9176113 
H     0.8429937    3.0846250   -2.3410010 
C     1.7368348   -0.9169286   -0.2361492 
C     1.2383339   -2.0219859   -1.1923997 
H     1.6641278   -1.2891168    0.8119465 
H     2.8179380   -0.7156241   -0.4109991 
C     2.2040553   -3.2031671   -1.2273671 
O     3.1595309   -3.3799041   -0.2334424 
O     2.1380457   -4.1208235   -2.2678762 
H     2.6082975   -3.7414107   -3.0758961 
N    -0.1106640   -2.4449574   -0.7759294 
H     1.2041027   -1.6222544   -2.2321182 
H    -0.8019744   -1.7129250   -1.0626606 
H    -0.3836084   -3.3114058   -1.3022597 
