24
Energy =
C    -0.0585411    1.9634244    0.7417380 
C    -0.3322434    2.6769506   -0.3744840 
C     0.1332904    2.2613137   -1.5744542 
C     0.6901774    0.8336870    0.6631814 
C     1.1668642    0.4106496   -0.5414149 
C     0.8828989    1.1330060   -1.6614380 
O    -1.0992721    3.8346076   -0.2893286 
H    -0.5099818    4.6448907   -0.1327646 
H     1.2516725    0.8111129   -2.6324261 
H     0.9007609    0.2732298    1.5698760 
H    -0.4480430    2.3028959    1.6955242 
H    -0.1035029    2.8372503   -2.4626920 
C     1.9965481   -0.8516887   -0.6436562 
C     1.1939867   -2.0294999   -1.2536062 
H     2.3986532   -1.1469008    0.3512546 
H     2.8842218   -0.6321026   -1.2809388 
C     2.1304837   -3.1482996   -1.6918883 
O     2.5504277   -3.2185275   -3.0124013 
O     2.6458223   -4.0505728   -0.7690234 
H     3.3948831   -3.6086602   -0.2577382 
N     0.1271896   -2.4959187   -0.3332191 
H     0.7099602   -1.6900490   -2.1989648 
H     0.2711965   -3.4975004   -0.0520204 
H     0.0949689   -1.9479786    0.5563995 
