24
Energy =
C    -0.1394143    1.1352191    1.4081386 
C    -0.1892295    2.3164727    0.7496612 
C     0.4195937    2.4487585   -0.4509186 
C     0.5144094    0.0773120    0.8635109 
C     1.1302227    0.2034850   -0.3451377 
C     1.0777417    1.3971137   -1.0001427 
O    -0.8617502    3.3971536    1.3106083 
H    -1.8367129    3.3965918    1.0297031 
H     1.5447950    1.5061948   -1.9770307 
H     0.5397751   -0.8671729    1.4011238 
H    -0.6263973    1.0460206    2.3736354 
H     0.3702720    3.4002529   -0.9692952 
C     1.8434287   -0.9768799   -0.9741445 
C     1.0505547   -1.6996395   -2.1050876 
H     2.1134797   -1.7192735   -0.1905747 
H     2.8214229   -0.6151790   -1.3666354 
C    -0.3572131   -1.1528865   -2.3518825 
O    -0.5649315   -0.0558466   -3.1797409 
O    -1.4464652   -1.7238110   -1.7059697 
H    -1.4882131   -1.3719707   -0.7615519 
N     1.8707608   -1.6910103   -3.3313766 
H     0.8839796   -2.7574031   -1.7915655 
H     2.6708725   -2.3568476   -3.2150672 
H     1.3065831   -2.0502994   -4.1399813 
