24
Energy =
C     1.4943855    2.6688238   -0.0154738 
C     0.1829242    2.9199323   -0.2193099 
C    -0.6515282    1.9140273   -0.5611628 
C     1.9753500    1.4069216   -0.1482518 
C     1.1468785    0.3812591   -0.5018058 
C    -0.1789056    0.6484181   -0.6958931 
O    -0.3074228    4.2147747   -0.0826239 
H    -0.6139176    4.3839927    0.8691716 
H    -0.8802737   -0.1259452   -0.9650530 
H     3.0329528    1.2259181    0.0296257 
H     2.1545914    3.4865184    0.2537549 
H    -1.7010100    2.1324884   -0.7275576 
C     1.7397810   -1.0189932   -0.6046583 
C     0.9561660   -2.0572739   -1.4649239 
H     1.9088708   -1.4174700    0.4205934 
H     2.7593243   -0.9115235   -1.0430684 
C     1.8966982   -3.1163129   -2.0195591 
O     2.6589819   -3.9003724   -1.1618458 
O     2.0697782   -3.2502990   -3.3920364 
H     2.6917096   -2.5262955   -3.7194078 
N    -0.1222692   -2.7052676   -0.6875565 
H     0.5323674   -1.5555494   -2.3662968 
H     0.0169572   -2.6330923    0.3477811 
H    -1.0620609   -2.3197463   -0.9324532 
