24
Energy =
C    -1.5117202    0.7722517   -0.1897902 
C    -1.3845739    2.0937001    0.0531149 
C    -0.1875682    2.6987794   -0.1504040 
C    -0.4553399    0.0437994   -0.6332070 
C     0.7589763    0.6417210   -0.8430960 
C     0.8730192    1.9795443   -0.5936467 
O    -2.4985060    2.8047128    0.5122605 
H    -2.3252146    3.7930323    0.6601334 
H     1.8212437    2.4896185   -0.7500013 
H    -0.6337880   -1.0046266   -0.8061189 
H    -2.4756006    0.3027676   -0.0250141 
H    -0.0746154    3.7606209    0.0404491 
C     2.0173837   -0.0759675   -1.3370857 
C     1.9672979   -1.6055522   -1.6673098 
H     2.8105343    0.0998200   -0.5755117 
H     2.3783604    0.4835676   -2.2311445 
C     2.2370387   -1.8689702   -3.1489028 
O     1.6127321   -1.0954581   -4.1188748 
O     3.0384225   -2.9285167   -3.5544940 
H     3.9992771   -2.6191386   -3.5523805 
N     2.9385202   -2.3002462   -0.8011910 
H     0.9775040   -2.0620612   -1.5075322 
H     2.6091444   -2.2350883    0.1913052 
H     2.9375450   -3.3246620   -1.0302932 
