24
Energy =
C    -0.1482456    1.3823308    1.2898529 
C     0.4820156    2.4904851    0.8169005 
C     1.4253017    2.3638360   -0.1436399 
C     0.1665503    0.1565296    0.7996097 
C     1.1148247    0.0279887   -0.1696471 
C     1.7444464    1.1407925   -0.6375693 
O     0.1803409    3.7680957    1.2994093 
H    -0.5327174    3.7799439    2.0205500 
H     2.5072300    1.0601167   -1.4082528 
H    -0.3458339   -0.7185560    1.1912316 
H    -0.9047907    1.4741278    2.0616834 
H     1.9217455    3.2554768   -0.5110098 
C     1.4678602   -1.3344070   -0.7274267 
C     0.9166249   -1.5416399   -2.1607265 
H     1.0968126   -2.1510808   -0.0666087 
H     2.5778783   -1.4344876   -0.7331246 
C     1.5221547   -2.7839554   -2.7864187 
O     2.3214309   -2.6767189   -3.9166301 
O     1.3049924   -4.0352317   -2.2265182 
H     0.4406405   -4.3965313   -2.6021414 
N    -0.5596778   -1.6307993   -2.1690490 
H     1.2523296   -0.6922338   -2.8023549 
H    -0.9775261   -1.4628729   -1.2247685 
H    -0.9485359   -0.8875309   -2.7967356 
