24
Energy =
C     0.7365060    2.5060007   -1.2297319 
C     0.1040331    2.7931368   -0.0693811 
C     0.0385928    1.8525374    0.9105344 
C     1.3030439    1.2878343   -1.4213919 
C     1.2383068    0.3415735   -0.4447728 
C     0.6033983    0.6325552    0.7245453 
O    -0.4684366    4.0594101    0.0898633 
H    -0.9203598    4.1983543    0.9871085 
H     0.5432160   -0.1059587    1.5200750 
H     1.8095269    1.0781987   -2.3603021 
H     0.7838472    3.2652188   -2.0029544 
H    -0.4649306    2.0742629    1.8453915 
C     1.8649733   -1.0187119   -0.6640947 
C     1.0466518   -1.8920836   -1.6491183 
H     1.9886913   -1.5710133    0.2961410 
H     2.8959936   -0.8732532   -1.0591914 
C     1.8319816   -3.1251494   -2.0602041 
O     1.8422697   -3.5326767   -3.3895160 
O     2.5620678   -3.8504975   -1.1249630 
H     2.9762966   -4.6469488   -1.5909480 
N    -0.2585375   -2.2821196   -1.0728477 
H     0.8930864   -1.3206859   -2.5948688 
H    -0.4351289   -1.8495602   -0.1375600 
H    -1.0303006   -1.9613914   -1.7037397 
