24
Energy =
C     0.3619225    2.1528869   -2.1563395 
C    -0.2357581    2.7477860   -1.0989517 
C    -0.1166444    2.1958481    0.1382628 
C     1.0781430    1.0122822   -1.9896921 
C     1.2036231    0.4578204   -0.7529492 
C     0.5985918    1.0553135    0.3108069 
O    -0.9656870    3.9218146   -1.3110051 
H    -1.3824321    4.3071256   -0.4705245 
H     0.6802311    0.6247645    1.3055032 
H     1.5495100    0.5475163   -2.8524006 
H     0.2583190    2.6017339   -3.1384213 
H    -0.5941211    2.6648870    0.9918992 
C     1.9895180   -0.8221228   -0.5719495 
C     1.1850533   -2.0678526   -1.0195207 
H     2.3117763   -0.9374703    0.4871869 
H     2.9259179   -0.7471941   -1.1715602 
C     2.0779336   -3.2957748   -1.1222420 
O     2.4669647   -3.7645479   -2.3700655 
O     2.5973518   -3.9002593    0.0175421 
H     3.3646758   -3.3470409    0.3656706 
N     0.0494555   -2.3094977   -0.1123644 
H     0.7931881   -1.9069739   -2.0510910 
H     0.3885208   -2.4248224    0.8724658 
H    -0.6131840   -1.4997812   -0.1390117 
