24
Energy =
C    -0.6472824    1.6421548    0.7750406 
C    -0.0538757    2.7692105    0.3186298 
C     1.0691039    2.6871025   -0.4319271 
C    -0.1123368    0.4274276    0.4911466 
C     1.0255407    0.3383758   -0.2527813 
C     1.6097255    1.4756671   -0.7212437 
O    -0.6058685    4.0126142    0.6097614 
H    -0.2223350    4.3809662    1.4731976 
H     2.5072813    1.4233178   -1.3324385 
H    -0.6057747   -0.4745024    0.8488568 
H    -1.5570763    1.7215666    1.3603506 
H     1.5249403    3.5986070   -0.8036460 
C     1.6057776   -1.0167230   -0.5900032 
C     1.0535429   -1.7425427   -1.8715031 
H     1.4845861   -1.6683196    0.3067993 
H     2.7100233   -0.9182282   -0.6892589 
C     0.6066797   -3.1588784   -1.5504861 
O     1.1167086   -4.2333058   -2.2708250 
O    -0.2957101   -3.4052357   -0.5218159 
H    -0.4878497   -4.3979495   -0.5008005 
N    -0.0222912   -1.0326070   -2.6043813 
H     1.9202350   -1.8786454   -2.5612190 
H    -0.3150885   -0.1157938   -2.2077231 
H     0.2796136   -0.8510996   -3.5900844 
