24
Energy =
C     1.1121926    2.4377868    0.2593727 
C     0.5651981    1.9394021    1.3912968 
C     0.3883944    0.6058141    1.5265144 
C     1.4918958    1.6018567   -0.7408680 
C     1.3178096    0.2554949   -0.6138363 
C     0.7676186   -0.2370545    0.5322100 
O     0.1810196    2.7994334    2.4153797 
H     0.9450970    2.9457928    3.0653951 
H     0.6188031   -1.3063242    0.6581405 
H     1.9331750    2.0203310   -1.6415798 
H     1.2390890    3.5106665    0.1614671 
H    -0.0640657    0.2215784    2.4342067 
C     1.7444013   -0.6828061   -1.7285618 
C     0.5695018   -1.1999944   -2.6018533 
H     2.2821634   -1.5508143   -1.2836466 
H     2.4855570   -0.1829266   -2.3910455 
C    -0.3884519   -2.0869868   -1.8129537 
O    -0.0562868   -3.4185331   -1.5886111 
O    -1.5446492   -1.5729867   -1.2347506 
H    -2.0415785   -2.3165930   -0.7623795 
N    -0.0913035   -0.1044148   -3.3535468 
H     1.0069865   -1.8926242   -3.3563720 
H    -1.1164429   -0.0612517   -3.1359289 
H     0.2829678    0.8367278   -3.0973549 
