24
Energy =
C     1.5321129    2.5000588   -1.5522115 
C     0.9554513    2.9734695   -0.4239601 
C     0.6101548    2.1215040    0.5683489 
C     1.7784765    1.1718180   -1.6867350 
C     1.4438583    0.3086069   -0.6870162 
C     0.8502360    0.7915909    0.4400476 
O     0.7083224    4.3359033   -0.2875813 
H     1.4959005    4.8013104    0.1497149 
H     0.5615907    0.1176322    1.2425787 
H     2.2356967    0.8053777   -2.6035678 
H     1.7864148    3.1921934   -2.3479103 
H     0.1341583    2.5138905    1.4604643 
C     1.6916080   -1.1775372   -0.8373945 
C     0.4363914   -1.9217116   -1.3592772 
H     1.9893988   -1.5923496    0.1510099 
H     2.5500509   -1.3660392   -1.5234439 
C     0.0661139   -1.5037782   -2.7861199 
O     1.0657289   -1.2217752   -3.7130195 
O    -1.2648122   -1.4262057   -3.1993484 
H    -1.8988999   -1.7566972   -2.4884940 
N     0.6349296   -3.3848304   -1.2904553 
H    -0.4202387   -1.6322856   -0.7068644 
H     1.5374776   -3.6577180   -0.8341699 
H    -0.1345080   -3.8259560   -0.7333182 
