24
Energy =
C    -0.6753070    2.0332990   -0.6796551 
C     0.2336693    3.0306915   -0.7173950 
C     1.5547271    2.7488941   -0.6791855 
C    -0.2722925    0.7255192   -0.6461951 
C     1.0856210    0.4405132   -0.5785921 
C     1.9817437    1.4637405   -0.6067745 
O    -0.1917049    4.3541751   -0.7718263 
H    -0.2863938    4.6591586   -1.7348482 
H     3.0490547    1.2589952   -0.5747719 
H    -1.1453930   -0.1993416   -0.4472184 
H    -1.7304958    2.2785551   -0.6757250 
H     2.2684629    3.5657246   -0.6977100 
C     1.6067814   -1.0004510   -0.5433534 
C     0.5464907   -2.1132250   -0.8059752 
H     2.0928969   -1.1846927    0.4388919 
H     2.3953660   -1.0893913   -1.3240962 
C    -0.4737671   -1.6426881   -1.8317948 
O    -1.0928530   -0.4003437   -1.5882454 
O    -0.7098478   -2.3032087   -3.0255379 
H    -1.3771078   -1.7685850   -3.5645363 
N     1.2057030   -3.3725715   -1.1897697 
H    -0.0327807   -2.2910162    0.1270217 
H     1.5886516   -3.2859165   -2.1624712 
H     2.0040491   -3.5782020   -0.5454292 
