24
Energy =
C     0.8344197    2.5463488   -1.0993170 
C     0.2143145    2.7687255    0.0821366 
C     0.1235522    1.7758011    0.9962245 
C     1.3581897    1.3248094   -1.3753950 
C     1.2640791    0.3171151   -0.4632051 
C     0.6448322    0.5513920    0.7278560 
O    -0.3217325    4.0219163    0.3613004 
H    -1.2869009    4.0760316    0.0551054 
H     0.5666099   -0.2342113    1.4751080 
H     1.8579176    1.1619539   -2.3271899 
H     0.9122176    3.3559966   -1.8171018 
H    -0.3640060    1.9729916    1.9449683 
C     1.8453825   -1.0452373   -0.7750492 
C     0.9854084   -1.8303655   -1.7999993 
H     1.9664016   -1.6558979    0.1492999 
H     2.8764938   -0.9055614   -1.1741512 
C     1.7326693   -3.0352137   -2.3463983 
O     2.7274928   -3.6605378   -1.6037501 
O     1.4019931   -3.5437072   -3.5940265 
H     0.5889014   -4.1328649   -3.4853016 
N    -0.3061108   -2.2504447   -1.2121226 
H     0.8132026   -1.1855028   -2.6942838 
H    -0.4643452   -1.8522569   -0.2575143 
H    -1.0931409   -1.9026615   -1.8095767 
