24
Energy =
C    -0.6046984    1.7105982    0.4282575 
C    -0.9985466    2.2512321   -0.7476555 
C    -0.3783843    1.8977899   -1.8969822 
C     0.4188020    0.8197604    0.4600628 
C     1.0551605    0.4669676   -0.6917834 
C     0.6458842    1.0069844   -1.8735562 
O    -2.0499490    3.1614808   -0.7768829 
H    -1.7067597    4.1097667   -0.6693585 
H     1.1320494    0.7285481   -2.8055943 
H     0.7196856    0.3844781    1.4104615 
H    -1.1203021    1.9918466    1.3403664 
H    -0.7143202    2.3295831   -2.8338970 
C     2.1809918   -0.5422689   -0.6659131 
C     1.6915926   -1.9678414   -0.9977503 
H     2.6775109   -0.5568620    0.3306608 
H     2.9709795   -0.2323246   -1.3873891 
C     2.8595498   -2.9107355   -1.2582843 
O     2.6128333   -4.2116992   -1.6786757 
O     4.1765387   -2.4824021   -1.1356466 
H     4.7876677   -3.2636822   -1.3392158 
N     0.8402887   -2.4503743    0.1068928 
H     1.1158268   -1.9555046   -1.9526727 
H    -0.1006149   -1.9969515    0.0364417 
H     0.6652920   -3.4785698   -0.0129304 
