24
Energy =
C     1.4997468    2.5579401   -0.8835955 
C     0.2753294    2.9517547   -0.4632800 
C    -0.5812203    2.0492753    0.0674713 
C     1.8763838    1.2588619   -0.7657919 
C     1.0229261    0.3463837   -0.2226038 
C    -0.2117810    0.7492707    0.1899027 
O    -0.1073020    4.2832010   -0.5883534 
H     0.1450135    4.8094447    0.2411239 
H    -0.9125971    0.0303964    0.6095274 
H     2.8600176    0.9543967   -1.1140449 
H     2.1703608    3.2903922   -1.3206188 
H    -1.5656722    2.3755149    0.3854029 
C     1.4285274   -1.1086019   -0.1030163 
C     1.0240182   -2.0268913   -1.3058170 
H     1.0071256   -1.5032629    0.8513078 
H     2.5304089   -1.1694494    0.0402091 
C     0.2661031   -3.2554262   -0.8302510 
O    -1.0046457   -3.1261342   -0.2833552 
O     0.8794532   -4.5018397   -0.8297848 
H     1.5155864   -4.5600946   -0.0488622 
N     0.2687762   -1.3175606   -2.3564802 
H     1.9511197   -2.4346917   -1.7715233 
H    -0.6441310   -0.9679637   -1.9769484 
H     0.8143547   -0.5048312   -2.7260167 
