24
Energy =
C     0.9814267    2.9207219    0.1667094 
C     0.1437678    2.4448423    1.1088931 
C    -0.2598739    1.1517452    1.0507703 
C     1.4189631    2.1166041   -0.8327475 
C     1.0250200    0.8091122   -0.9139297 
C     0.1730743    0.3379041    0.0518133 
O    -0.2867794    3.3048645    2.1249737 
H    -0.9102451    2.8741353    2.7993465 
H    -0.1936229   -0.6704511    0.0843753 
H     2.0955631    2.5359151   -1.5744250 
H     1.2994683    3.9563455    0.2224029 
H    -0.9330994    0.7633638    1.8085350 
C     1.6018168    0.0166973   -2.1019452 
C     1.3236851   -1.4911876   -2.4494899 
H     2.7083029    0.1139011   -2.0193185 
H     1.3442480    0.6154041   -3.0055879 
C     0.5549911   -2.3215578   -1.4383021 
O     1.2427533   -2.9254252   -0.3962297 
O    -0.8369405   -2.4084551   -1.4545752 
H    -1.2244059   -1.9090950   -2.2440780 
N     0.7231084   -1.5725474   -3.7966493 
H     2.3146174   -2.0078892   -2.4825214 
H     1.4190397   -1.2387594   -4.5054187 
H     0.5427186   -2.5782978   -4.0387405 
