24
Energy =
C     0.6098999    2.6023435   -1.0536035 
C    -0.4811440    2.5072976   -0.2597745 
C    -0.7174743    1.3695235    0.4324958 
C     1.4658967    1.5549314   -1.1644880 
C     1.2333467    0.4034973   -0.4741586 
C     0.1338615    0.3176629    0.3267048 
O    -1.3563336    3.5828372   -0.1478886 
H    -2.1045166    3.5086944   -0.8289140 
H    -0.0683825   -0.5910545    0.8875820 
H     2.3345109    1.6461514   -1.8127488 
H     0.7914936    3.5223436   -1.5992891 
H    -1.5907158    1.3121646    1.0732396 
C     2.1732586   -0.7771063   -0.6040640 
C     1.6077286   -1.8679262   -1.5481992 
H     2.3487840   -1.2043290    0.4074954 
H     3.1732682   -0.4483631   -0.9705927 
C     1.5601258   -1.4336305   -3.0152886 
O     2.3368813   -0.3719501   -3.4665625 
O     0.7611516   -2.1105943   -3.9348366 
H     0.4099170   -2.9725430   -3.5437999 
N     2.3849694   -3.1090879   -1.3930775 
H     0.5493006   -2.0747675   -1.2691330 
H     3.3911461   -2.9292389   -1.6293736 
H     2.3502242   -3.4431609   -0.4003443 
