24
Energy =
C    -0.7888672    1.2763856    0.7468100 
C    -0.8540370    2.3498020   -0.0855284 
C     0.0424444    2.4717754   -1.0902592 
C     0.1723705    0.3342595    0.5716650 
C     1.0812582    0.4604448   -0.4343733 
C     1.0068591    1.5336119   -1.2692053 
O    -1.8299339    3.3391900    0.0681392 
H    -2.4706374    3.1712212    0.8361559 
H     1.7130370    1.6422158   -2.0904494 
H     0.2077995   -0.5208149    1.2423718 
H    -1.5066647    1.1682626    1.5529415 
H    -0.0262891    3.3289391   -1.7517074 
C     2.1409996   -0.6013251   -0.6387871 
C     1.6194983   -1.7865751   -1.4753605 
H     2.4879615   -0.9683583    0.3516978 
H     3.0430856   -0.1765523   -1.1364796 
C     1.3255356   -1.3876757   -2.9179648 
O     0.3534361   -2.0744978   -3.6347512 
O     2.0359603   -0.3707762   -3.5500552 
H     1.7360674   -0.3255118   -4.5162119 
N     2.6120294   -2.8742957   -1.4068190 
H     0.6495956   -2.1396520   -1.0526366 
H     2.5909516   -3.2994637   -0.4503417 
H     2.3318794   -3.6402172   -2.0676182 
