24
Energy =
C     0.4480203    2.3341523   -2.2597838 
C     0.1484239    3.0414744   -1.1461215 
C     0.4289161    2.5323105    0.0753384 
C     1.0460871    1.1198698   -2.1559698 
C     1.3503294    0.6091236   -0.9303157 
C     1.0250499    1.3180033    0.1873253 
O    -0.4592760    4.2877496   -1.2559801 
H     0.2361572    5.0240756   -1.2994559 
H     1.2256594    0.9101732    1.1746419 
H     1.2618173    0.5507133   -3.0569407 
H     0.1931710    2.7421172   -3.2322060 
H     0.1602162    3.0995207    0.9600717 
C     1.9910204   -0.7605883   -0.8118993 
C     0.9718080   -1.9498572   -0.7354602 
H     2.6304437   -0.7823947    0.0985295 
H     2.7136065   -0.8790636   -1.6465158 
C    -0.4903615   -1.5205582   -0.6989873 
O    -1.1881311   -1.2372075   -1.8695732 
O    -1.1193460   -1.3246687    0.5260150 
H    -2.0700351   -1.0234518    0.3526327 
N     1.1981896   -2.9488503   -1.8058062 
H     1.1240383   -2.4443708    0.2527825 
H     1.9967111   -2.7225181   -2.4404057 
H     1.3928321   -3.8881531   -1.3858387 
