24
Energy =
C     0.1512710    2.4402180   -0.5000589 
C     1.2907425    2.9401444    0.0410027 
C     2.3656364    2.1382834    0.1862518 
C     0.0884777    1.1420581   -0.8928255 
C     1.1747269    0.3183734   -0.7488215 
C     2.3128824    0.8406291   -0.2034683 
O     1.3838679    4.2723324    0.4562430 
H     0.5390541    4.8132569    0.3053990 
H     3.1971111    0.2201977   -0.0746197 
H    -0.8476217    0.8150614   -1.3148225 
H    -0.7168613    3.0795834   -0.6216423 
H     3.2713033    2.5502605    0.6186210 
C     1.2227071   -1.1578618   -1.1557955 
C    -0.0423231   -1.8377105   -1.8007228 
H     1.5567533   -1.7218418   -0.2605479 
H     2.0844801   -1.2632001   -1.8568671 
C     0.2449290   -2.2784820   -3.2284226 
O    -0.4824876   -1.7481904   -4.2866539 
O     1.2417082   -3.2082884   -3.4926725 
H     0.8378449   -4.1287435   -3.4002034 
N    -0.5194071   -2.9935750   -1.0056388 
H    -0.8841942   -1.1364253   -1.9167533 
H     0.0425044   -3.1833033   -0.1449827 
H    -1.5005946   -2.8195456   -0.6812852 
