24
Energy =
C     1.6716417    2.4277277   -1.6370224 
C     0.4696527    2.9981500   -1.3924594 
C    -0.4292761    2.3571760   -0.5984813 
C     1.9848499    1.2230972   -1.0956416 
C     1.0896979    0.5800004   -0.2968758 
C    -0.1213174    1.1532938   -0.0539680 
O     0.1842194    4.2395588   -1.9703440 
H    -0.7351318    4.6008096   -1.7396048 
H    -0.8527151    0.6473730    0.5728739 
H     2.9533822    0.7779976   -1.3082691 
H     2.3787129    2.9485119   -2.2737123 
H    -1.3971132    2.8040018   -0.3986491 
C     1.4257011   -0.7716422    0.2993287 
C     0.9870463   -2.0163576   -0.5448481 
H     0.9841961   -0.8168090    1.3226904 
H     2.5225141   -0.8288179    0.4793812 
C     0.1539966   -2.9802428    0.2807053 
O    -1.1265433   -2.6284158    0.6981632 
O     0.6967590   -4.1937447    0.6864353 
H     0.0056899   -4.7024354    1.2229800 
N     0.2947325   -1.6595281   -1.7985350 
H     1.8974092   -2.6040831   -0.8092251 
H    -0.5910085   -1.1395788   -1.5873525 
H     0.9026672   -1.0515306   -2.3946921 
