24
Energy =
C    -0.3734753    2.1196896   -0.2142531 
C     0.6458545    3.0097554   -0.1086301 
C     1.9195374    2.5819891   -0.2376729 
C    -0.1161067    0.8084713   -0.4515822 
C     1.1700839    0.3676400   -0.6012465 
C     2.1852242    1.2729781   -0.4751949 
O     0.4135762    4.3669046    0.1362510 
H    -0.5678787    4.6096128    0.2191395 
H     3.2220025    0.9578051   -0.5641053 
H    -0.9608365    0.1377019   -0.5184523 
H    -1.4000507    2.4527539   -0.1049997 
H     2.7246902    3.3029003   -0.1442118 
C     1.5289344   -1.1028945   -0.8320714 
C     0.4860127   -1.9393277   -1.6293692 
H     1.7116310   -1.5803717    0.1558424 
H     2.4873841   -1.0922515   -1.3794521 
C     0.9939666   -3.2416463   -2.2929843 
O     0.0414265   -4.1457369   -2.7471923 
O     2.3348475   -3.5747929   -2.5085160 
H     3.0013661   -2.8683334   -2.2674193 
N    -0.6498037   -2.2292012   -0.7315530 
H     0.1285667   -1.3131435   -2.4790371 
H    -1.4634672   -2.5650849   -1.3023881 
H    -0.4052371   -3.0143430   -0.0800238 
