24
Energy =
C     0.9447315    2.7793642   -1.1037239 
C     0.1688671    2.9739256   -0.0121545 
C    -0.1029426    1.9412029    0.8183795 
C     1.4479918    1.5471836   -1.3726488 
C     1.1819299    0.5042525   -0.5383527 
C     0.3970723    0.7064499    0.5569302 
O    -0.3458440    4.2374048    0.2591673 
H    -1.2524939    4.3573083   -0.1787832 
H     0.1630172   -0.1216901    1.2234250 
H     2.0640829    1.4025776   -2.2566509 
H     1.1599658    3.6186580   -1.7566582 
H    -0.7218300    2.1136249    1.6925125 
C     1.7222568   -0.8759573   -0.8397711 
C     0.8286178   -1.8295467   -1.7132269 
H     1.9743916   -1.3623374    0.1323372 
H     2.7127912   -0.7686096   -1.3362622 
C     0.6579794   -3.1765234   -1.0318300 
O     1.1418173   -4.3320278   -1.6308343 
O     0.0285155   -3.2658314    0.2025164 
H    -0.9642364   -3.3350541    0.0327482 
N    -0.4980844   -1.2915747   -2.1078302 
H     1.4102172   -2.0616177   -2.6377718 
H    -0.7158983   -0.3289315   -1.7751475 
H    -0.5735331   -1.2659941   -3.1524763 
