24
Energy =
C    -0.6352546    1.5460933    0.4824620 
C     0.2263181    2.5531958    0.7445426 
C     1.5182448    2.4540365    0.3610941 
C    -0.2057475    0.4294826   -0.1595874 
C     1.0955147    0.3199622   -0.5620532 
C     1.9555986    1.3419435   -0.2826638 
O    -0.2177042    3.6941810    1.4049438 
H    -0.1048568    3.5939259    2.4077983 
H     3.0012393    1.2782636   -0.5730312 
H    -0.9198881   -0.3620738   -0.3574505 
H    -1.6713717    1.6428593    0.7896934 
H     2.1971170    3.2728845    0.5740722 
C     1.6426079   -0.9295994   -1.2472866 
C     0.6381540   -1.7690479   -2.0880699 
H     2.1194466   -1.5695778   -0.4708705 
H     2.4591107   -0.6208545   -1.9370305 
C    -0.1678630   -2.7666756   -1.2446144 
O    -0.0818491   -2.7457580    0.1438595 
O    -0.9654532   -3.7419415   -1.8407252 
H    -0.9922887   -3.6363510   -2.8430907 
N    -0.2243438   -0.8738915   -2.8826024 
H     1.2367031   -2.4087847   -2.7780317 
H     0.3681456   -0.1992486   -3.4253889 
H    -0.7503710   -1.4295780   -3.5964198 
