24
Energy =
C     0.0810872    1.2204896    1.3794115 
C     0.0837667    2.4312820    0.7601779 
C     0.6530761    2.5570308   -0.4598613 
C     0.6514261    0.1454645    0.7783589 
C     1.2373472    0.2743847   -0.4441830 
C     1.2257757    1.4861834   -1.0645562 
O    -0.4923315    3.5592319    1.3524402 
H    -0.9178452    3.3790333    2.2554437 
H     1.6555947    1.5973420   -2.0566414 
H     0.6251748   -0.8199919    1.2774759 
H    -0.3834969    1.1072709    2.3531242 
H     0.6351824    3.5242450   -0.9501013 
C     1.8488844   -0.9289644   -1.1357825 
C     0.8914935   -1.6520708   -2.1455536 
H     2.1761547   -1.6660097   -0.3685871 
H     2.7976371   -0.6048196   -1.6120697 
C    -0.5270424   -1.0818279   -2.1844870 
O    -1.5172823   -1.6259750   -1.3750179 
O    -0.8304636    0.0216420   -2.9748418 
H    -1.8062788    0.2537659   -2.8386536 
N     1.5005782   -1.7843721   -3.4953436 
H     0.7354962   -2.6863318   -1.7619171 
H     0.8999137   -1.3271516   -4.2251431 
H     2.4344230   -1.3246481   -3.5804990 
