24
Energy =
C     1.3830603    2.8322518   -0.2812024 
C     0.0941007    3.1169485   -0.5551854 
C    -0.7442895    2.1340285   -0.9420916 
C     1.8355920    1.5581133   -0.3854095 
C     1.0038164    0.5410416   -0.7710441 
C    -0.3009325    0.8539403   -1.0501474 
O    -0.3691448    4.4239139   -0.4480689 
H    -0.7266480    4.6020168    0.4841439 
H    -1.0247393    0.1313413   -1.3648612 
H     2.8804800    1.3589836   -0.1565789 
H     2.0504110    3.6334661    0.0189712 
H    -1.7755622    2.3839937   -1.1701237 
C     1.6456646   -0.8551719   -0.8421747 
C     0.9363778   -2.1875961   -1.2833459 
H     2.0979533   -1.0241637    0.1627426 
H     2.5259297   -0.7427301   -1.5148914 
C     1.0164911   -3.2521082   -0.1939763 
O     0.2955420   -3.1134108    0.9867160 
O     1.8432656   -4.3548169   -0.3575263 
H     1.7661906   -4.9417215    0.4636525 
N    -0.4339740   -2.0116919   -1.7921772 
H     1.5538383   -2.6156778   -2.1104188 
H    -0.6582083   -2.8039005   -2.4416849 
H    -1.1120091   -2.1112054   -0.9954487 
