24
Energy =
C    -0.4591385    2.1008655   -1.2735396 
C    -1.3311179    1.7472243   -0.3017579 
C    -1.0199514    0.7491678    0.5567351 
C     0.7354696    1.4645753   -1.3824023 
C     1.0607474    0.4662598   -0.5141189 
C     0.1711460    0.1062420    0.4524987 
O    -2.5532512    2.4024657   -0.1921330 
H    -2.4782821    3.2014895    0.4278713 
H     0.4064477   -0.6979682    1.1455732 
H     1.4251517    1.7521778   -2.1744704 
H    -0.7307699    2.8904486   -1.9665031 
H    -1.7357053    0.4668234    1.3214330 
C     2.3783142   -0.2665636   -0.6448425 
C     2.2550938   -1.5189753   -1.5373825 
H     2.7357952   -0.5740879    0.3641025 
H     3.1672857    0.4096409   -1.0469150 
C     1.9914417   -1.1753122   -3.0070761 
O     2.5596826   -0.0375847   -3.5691466 
O     1.2254307   -2.0071642   -3.8217832 
H     0.9562043   -2.8568193   -3.3507658 
N     3.4750117   -2.3261138   -1.3665655 
H     1.3797630   -2.1098375   -1.1824551 
H     3.3819095   -3.2204147   -1.9046338 
H     4.2941363   -1.8154328   -1.7807662 
