24
Energy =
C     0.0938564    1.3983639    1.1283091 
C     0.3251007    2.5786394    0.5094230 
C     1.0245189    2.6102216   -0.6475777 
C     0.5703805    0.2441579    0.5960795 
C     1.2856383    0.2678299   -0.5637125 
C     1.5075140    1.4604679   -1.1846805 
O    -0.1642187    3.7595616    1.0586431 
H     0.5110691    4.1646991    1.6972206 
H     2.0604315    1.5023812   -2.1208566 
H     0.3722782   -0.6972325    1.1023432 
H    -0.4808221    1.3867562    2.0481941 
H     1.1855136    3.5619690   -1.1427557 
C     1.8051515   -1.0268499   -1.1562165 
C     0.7016577   -1.8044105   -1.9323384 
H     2.2180121   -1.6385736   -0.3253293 
H     2.6776095   -0.8386292   -1.8232818 
C     0.6268148   -1.3511682   -3.4044151 
O     0.9790881   -0.0494685   -3.7389011 
O     0.1344677   -2.1623071   -4.4281292 
H    -0.0162266   -3.1130579   -4.1421660 
N     0.9509699   -3.2560544   -1.7964894 
H    -0.2970165   -1.5658920   -1.4966140 
H     1.0994318   -3.5024255   -0.7895997 
H     0.0790181   -3.7807516   -2.0441190 
