24
Energy =
C    -0.8285197    1.9777509   -0.6757818 
C    -0.0224714    3.0433142   -0.8685531 
C     1.3162370    2.8776461   -0.9494754 
C    -0.3065044    0.7144650   -0.6035957 
C     1.0713458    0.5504679   -0.6605458 
C     1.8637385    1.6414252   -0.8432686 
O    -0.5701559    4.3190237   -0.9601495 
H    -0.7827585    4.5472446   -1.9256133 
H     2.9434547    1.5311437   -0.9090389 
H    -1.0673578   -0.2632354   -0.2564365 
H    -1.8962838    2.1321043   -0.5783966 
H     1.9471334    3.7487201   -1.0913568 
C     1.7212436   -0.8358042   -0.5954386 
C     0.7562236   -2.0511297   -0.6853191 
H     2.3184216   -0.9178520    0.3378921 
H     2.4376532   -0.9090214   -1.4436494 
C    -0.4133975   -1.7444878   -1.6053436 
O    -1.1087001   -0.5415432   -1.3815843 
O    -0.7517857   -2.5462413   -2.6807563 
H    -1.5206740   -2.1135411   -3.1764300 
N     1.5187591   -3.2411113   -1.0963073 
H     0.3140071   -2.2292035    0.3215802 
H     0.8849604   -4.0734085   -1.0326075 
H     1.7415947   -3.1614378   -2.1188733 
