24
Energy =
C    -0.3502476    1.5007354    0.9314721 
C     0.1132264    2.6198835    0.3299745 
C     1.0950418    2.5221727   -0.6061404 
C     0.1600753    0.2853260    0.6096692 
C     1.1493185    0.1826936   -0.3196680 
C     1.6083519    1.3088587   -0.9326362 
O    -0.4370231    3.8545307    0.6895548 
H    -0.0395542    4.6437899    0.1919404 
H     2.3871926    1.2463276   -1.6889821 
H    -0.2341623   -0.6045210    1.0935113 
H    -1.1386625    1.5901429    1.6707612 
H     1.4695526    3.4135714   -1.0979144 
C     1.7047780   -1.1724091   -0.6990612 
C     0.9185902   -1.7973705   -1.8666231 
H     1.6830493   -1.8601778    0.1759997 
H     2.7778685   -1.0682646   -0.9792828 
C     1.6538998   -3.0068752   -2.4192274 
O     2.4144194   -2.8895744   -3.5744524 
O     1.6217357   -4.2222634   -1.7487583 
H     2.1850896   -4.8876076   -2.2638760 
N    -0.4467247   -2.1284877   -1.4164844 
H     0.8658910   -1.0610993   -2.7032127 
H    -0.9998699   -2.4661148   -2.2397026 
H    -0.3998475   -2.9421971   -0.7550847 
