24
Energy =
C    -0.3661364    0.1620984    1.5583444 
C    -0.7590077    1.4477168    1.3551161 
C    -0.2212273    2.1578910    0.3376992 
C     0.5606365   -0.4044996    0.7449125 
C     1.1024894    0.3096199   -0.2809305 
C     0.7051400    1.5960641   -0.4801348 
O    -1.7118924    2.0619345    2.1737592 
H    -2.0693393    1.4646300    2.9116770 
H     1.1236132    2.1834741   -1.2930413 
H     0.8618381   -1.4364350    0.9182910 
H    -0.7927476   -0.4162087    2.3710319 
H    -0.5443723    3.1824388    0.1877242 
C     2.1250216   -0.3275109   -1.1988488 
C     1.4884446   -1.0881430   -2.3901092 
H     2.7553133   -1.0357402   -0.6117523 
H     2.8295413    0.4438292   -1.5808466 
C     0.5843314   -2.2243230   -1.9314862 
O     1.1444318   -3.3130862   -1.2767084 
O    -0.7969165   -2.1588401   -2.0654556 
H    -1.1747990   -1.6150633   -1.3050735 
N     0.8151620   -0.1565168   -3.3146379 
H     2.3027976   -1.6047702   -2.9486236 
H    -0.0458076    0.2394335   -2.8677654 
H     1.4479114    0.6399798   -3.5595063 
