24
Energy =
C    -0.9305991    1.0511323    0.7875332 
C    -0.7922939    2.2444571    0.1662624 
C     0.2428045    2.4517908   -0.6794149 
C    -0.0331675    0.0571731    0.5625686 
C     1.0148795    0.2591838   -0.2860454 
C     1.1429355    1.4625145   -0.9111150 
O    -1.7132035    3.2598920    0.4009095 
H    -2.4784118    3.2088326   -0.2631158 
H     1.9598767    1.6358245   -1.6069598 
H    -0.1690607   -0.9066048    1.0499356 
H    -1.7682767    0.8997829    1.4606303 
H     0.3413134    3.4141651   -1.1701093 
C     2.0057333   -0.8547417   -0.5622021 
C     1.5646098   -1.7655234   -1.7282108 
H     2.1521376   -1.4692994    0.3549826 
H     3.0040447   -0.4225977   -0.7942978 
C     0.2429365   -2.4675542   -1.4106685 
O     0.2692614   -3.6033127   -0.6112579 
O    -0.9945415   -1.9383285   -1.7752886 
H    -0.8743169   -1.1028836   -2.3311966 
N     1.5231845   -0.9843181   -2.9784974 
H     2.3145399   -2.5849536   -1.8341499 
H     2.4877243   -0.6439091   -3.2084744 
H     1.2553552   -1.6225913   -3.7655613 
