24
Energy =
C     1.5324446    2.5962825   -1.0586367 
C     0.2661403    2.8983319   -1.4265867 
C    -0.7327458    2.0057229   -1.1926197 
C     1.8107506    1.4114413   -0.4577054 
C     0.8126503    0.5182060   -0.2148625 
C    -0.4603040    0.8201057   -0.5913212 
O     0.0201455    4.1290383   -2.0441812 
H    -0.9518254    4.2795323   -2.2915871 
H    -1.2634264    0.1064596   -0.4216201 
H     2.8355823    1.1840897   -0.1766196 
H     2.3206737    3.3151298   -1.2544022 
H    -1.7500712    2.2354584   -1.4898118 
C     1.1136626   -0.8153114    0.4386264 
C     1.2469462   -2.0199198   -0.5492125 
H     0.3192718   -1.0071895    1.1974546 
H     2.0485482   -0.7368945    1.0368003 
C     0.3446775   -3.1738516   -0.1352429 
O     0.8598687   -4.4585018   -0.0312389 
O    -1.0108691   -2.9689509    0.0861397 
H    -1.4811685   -3.0123587   -0.8058909 
N     0.9867613   -1.6236614   -1.9466762 
H     2.2890822   -2.4117113   -0.4766672 
H     1.7385113   -0.9631836   -2.2565316 
H     1.0905342   -2.4634706   -2.5658915 
