24
Energy =
C     0.4228336    2.2304695    0.6061566 
C     0.1874256    2.9677877   -0.5119633 
C     0.4949878    2.4579645   -1.7263005 
C     0.9696381    0.9926236    0.5040911 
C     1.2958082    0.4851843   -0.7170147 
C     1.0438686    1.2215386   -1.8340542 
O    -0.3705674    4.2477974   -0.4413829 
H    -0.5928832    4.5505529    0.5006404 
H     1.2619801    0.8161957   -2.8196472 
H     1.1326717    0.4052934    1.4040383 
H     0.1675771    2.6257356    1.5835148 
H     0.2865112    3.0490306   -2.6117137 
C     1.8790929   -0.9096158   -0.8396299 
C     0.8304024   -2.0354460   -1.0794971 
H     2.4655321   -1.1497925    0.0744334 
H     2.6276696   -0.9060712   -1.6639877 
C    -0.6191517   -1.5502008   -1.0797522 
O    -1.2442415   -1.1443063   -2.2542031 
O    -1.3146315   -1.4592002    0.1194773 
H    -2.2410750   -1.1009468   -0.0754376 
N     1.1834009   -2.7551397   -2.3189447 
H     0.8842583   -2.7466154   -0.2223531 
H     2.0114268   -3.3688543   -2.1348029 
H     0.3980517   -3.3929613   -2.5965793 
