24
Energy =
C    -0.8691400    1.8833682   -0.3954819 
C    -0.0921578    2.9527728   -0.0893537 
C     1.2503822    2.8399983   -0.1551933 
C    -0.3035444    0.7056682   -0.7653453 
C     1.0595492    0.5804627   -0.8344150 
C     1.8246207    1.6682910   -0.5239231 
O    -0.6466954    4.1777769    0.2954957 
H    -1.6608334    4.1852641    0.3165498 
H     2.9100077    1.6101089   -0.5678876 
H    -0.9819598   -0.0998852   -0.9944252 
H    -1.9496739    1.9671303   -0.3456927 
H     1.8605859    3.7023632    0.0912212 
C     1.8078056   -0.6923160   -1.2413883 
C     1.0034414   -1.9937943   -1.6090842 
H     2.5400635   -0.9018962   -0.4347993 
H     2.4583852   -0.4176145   -2.1051469 
C     1.2263827   -2.3708663   -3.0704084 
O     0.2043134   -2.2171704   -3.9988051 
O     2.4670905   -2.8252712   -3.4982182 
H     2.4152672   -3.0155515   -4.4912368 
N     1.3063730   -3.1147447   -0.6805211 
H    -0.0860882   -1.8493648   -1.5630373 
H     1.6515960   -3.9572500   -1.2034024 
H     2.0533139   -2.8988477    0.0168494 
