24
Energy =
C     2.4457080    2.0307070   -1.3767937 
C     1.6475389    2.8605400   -0.6531490 
C     0.6586476    2.3404173    0.1090377 
C     2.2523685    0.6885311   -1.3314407 
C     1.2610831    0.1625053   -0.5597122 
C     0.4619279    0.9987717    0.1588247 
O     1.8217290    4.2481040   -0.6741563 
H     2.5714573    4.5629055   -1.2805234 
H    -0.3448900    0.6001155    0.7691269 
H     2.8885899    0.0351947   -1.9234573 
H     3.2376219    2.4382414   -1.9958414 
H     0.0233105    3.0129708    0.6752433 
C     1.0328749   -1.3354506   -0.5214996 
C     0.0421058   -1.8235443   -1.5990752 
H     0.6609342   -1.6340763    0.4847709 
H     2.0002413   -1.8681298   -0.6594340 
C    -1.3450170   -1.2123481   -1.4335823 
O    -2.2324288   -1.7648958   -0.5165934 
O    -1.7194624   -0.0735586   -2.1399585 
H    -2.6649908    0.1805652   -1.8862174 
N     0.6261313   -1.6157843   -2.9384131 
H    -0.1060323   -2.9170720   -1.4416819 
H     0.0421186   -2.1253816   -3.6434644 
H     0.5469724   -0.6022443   -3.1973086 
