24
Energy =
C    -0.2854911    2.3618309   -0.6144252 
C     0.4084957    2.8484355   -1.6684964 
C     1.4529409    2.1514998   -2.1726198 
C     0.0605348    1.1716936   -0.0624222 
C     1.1144448    0.4655823   -0.5611109 
C     1.8051704    0.9595734   -1.6261491 
O     0.0511511    4.0690140   -2.2312288 
H    -0.6316792    3.9366250   -2.9695523 
H     2.6355892    0.4010370   -2.0500145 
H    -0.5139641    0.7809734    0.7744710 
H    -1.1193513    2.9316230   -0.2190089 
H     2.0007890    2.5557387   -3.0172268 
C     1.4853491   -0.8765115    0.0378562 
C     0.7678023   -2.0981896   -0.6161506 
H     1.2896306   -0.8400121    1.1345001 
H     2.5860917   -1.0165886   -0.0434257 
C     0.0775120   -2.9639704    0.4283477 
O    -0.9320576   -2.4347236    1.2222004 
O     0.4731870   -4.2803800    0.6217483 
H     1.3160558   -4.2969649    1.1768023 
N    -0.1605617   -1.6815077   -1.6862447 
H     1.5499473   -2.7485408   -1.0725431 
H    -0.4999274   -2.5330288   -2.1955453 
H    -1.0134399   -1.2481089   -1.2566662 
