24
Energy =
C     0.2683098    2.2117663    0.3338261 
C     0.9012327    2.8862240   -0.6629774 
C     1.6688980    2.2084247   -1.5458920 
C     0.4110530    0.8667536    0.4447005 
C     1.1931922    0.1840865   -0.4372176 
C     1.8156829    0.8639287   -1.4390393 
O     0.7802171    4.2724958   -0.8027656 
H     0.1686405    4.7032376   -0.1176848 
H     2.4227142    0.3325681   -2.1666476 
H    -0.1130007    0.3384024    1.2381741 
H    -0.3572735    2.7449224    1.0416118 
H     2.1586181    2.7563523   -2.3431394 
C     1.3376923   -1.3213090   -0.3260372 
C     0.3940616   -2.0761056   -1.2848566 
H     1.1329954   -1.6494266    0.7182672 
H     2.3899210   -1.6105688   -0.5375460 
C    -1.0655475   -1.6932514   -1.0545191 
O    -1.8241910   -1.0810918   -2.0471290 
O    -1.6643395   -1.9815933    0.1657326 
H    -2.6255394   -1.6663824    0.1331942 
N     0.8500550   -1.8621529   -2.6731610 
H     0.4395018   -3.1619718   -1.0386683 
H     1.6872005   -2.4630719   -2.8563489 
H     0.1076653   -2.1800485   -3.3432609 
