24
Energy =
C     0.8871241    2.6167642   -0.4076536 
C     0.5950429    2.3798873    0.8915268 
C     0.6696277    1.1227666    1.3830378 
C     1.2447766    1.5930232   -1.2247538 
C     1.3106753    0.3198894   -0.7412013 
C     1.0285241    0.0941661    0.5735993 
O     0.2272297    3.4315121    1.7247805 
H    -0.7764012    3.5738171    1.6965675 
H     1.0791306   -0.9112081    0.9859447 
H     1.4813824    1.8031798   -2.2644079 
H     0.8369659    3.6330276   -0.7836423 
H     0.4397343    0.9476548    2.4285440 
C     1.7117139   -0.8280285   -1.6502492 
C     0.5170721   -1.6923204   -2.1368168 
H     2.4388610   -1.4766804   -1.1097228 
H     2.2609113   -0.4442087   -2.5385936 
C    -0.1600484   -2.4320958   -0.9821297 
O     0.4043701   -3.6150489   -0.5258735 
O    -1.2216185   -1.8868760   -0.2663250 
H    -2.0655507   -1.9257278   -0.8158118 
N    -0.3955574   -0.9271244   -3.0228956 
H     0.9494810   -2.5143424   -2.7525949 
H    -1.3871472   -0.9621014   -2.6976305 
H    -0.1492910    0.0879161   -3.0668919 
