24
Energy =
C     0.5863533    2.6452197   -0.3177041 
C     0.7347899    2.3994843    1.0113234 
C     1.1774797    1.1895117    1.4215720 
C     0.8830875    1.6823785   -1.2270269 
C     1.3329708    0.4655942   -0.8146172 
C     1.4725234    0.2212271    0.5169285 
O     0.4367989    3.3679971    1.9752421 
H     0.1094595    4.2466370    1.5879958 
H     1.8226908   -0.7472689    0.8661477 
H     0.7462839    1.8909206   -2.2870270 
H     0.2254094    3.6103843   -0.6566271 
H     1.2892741    1.0086070    2.4850331 
C     1.6338009   -0.6197200   -1.8239072 
C     0.4009578   -1.4977608   -2.1068093 
H     2.4616519   -1.2626818   -1.4483968 
H     2.0062830   -0.1750143   -2.7754764 
C    -0.6890951   -0.7154516   -2.8462929 
O    -0.6214701   -0.5806532   -4.2269083 
O    -1.7252381   -0.0773589   -2.1651939 
H    -1.6143754   -0.1305847   -1.1641795 
N     0.8444323   -2.6905071   -2.8516233 
H    -0.0323416   -1.8349860   -1.1376510 
H     0.0212967   -3.3173582   -3.0224598 
H     1.1826169   -2.4041593   -3.8037620 
