24
Energy =
C     2.1457752    2.2552735   -0.8977777 
C     1.1361620    2.9092238   -0.2790399 
C     0.1385267    2.1984966    0.3124771 
C     2.1705576    0.8991073   -0.9271912 
C     1.1777121    0.1841547   -0.3309156 
C     0.1568630    0.8418357    0.2832888 
O     1.1457029    4.3085355   -0.2678505 
H     0.3572089    4.7244602    0.2153832 
H    -0.6504025    0.2874737    0.7556896 
H     2.9850079    0.3923862   -1.4410315 
H     2.9320596    2.8311201   -1.3735958 
H    -0.6767257    2.7140605    0.8081163 
C     1.1854698   -1.3267539   -0.3864549 
C     0.3764809   -1.8638884   -1.5811999 
H     0.7718716   -1.7358577    0.5619333 
H     2.2291273   -1.7159904   -0.4449597 
C     1.0282398   -1.4727940   -2.9139858 
O     2.0449279   -2.2559487   -3.4465467 
O     0.6558618   -0.3126357   -3.5941830 
H    -0.0061649    0.2371122   -3.0678258 
N     0.2674849   -3.3248139   -1.4273982 
H    -0.6460655   -1.4198781   -1.5690249 
H    -0.4329840   -3.5470832   -0.6814336 
H    -0.0961780   -3.7542228   -2.3129714 
