24
Energy =
C     2.1229373    2.2031811   -0.8382116 
C     1.0999439    2.8195614   -0.2030227 
C     0.0989506    2.0875408    0.3370207 
C     2.1456141    0.8499001   -0.9414266 
C     1.1413375    0.1054700   -0.3995580 
C     0.1138524    0.7340628    0.2376892 
O     1.0803798    4.2066492   -0.0991965 
H     0.5803875    4.6156140   -0.8816116 
H    -0.7021158    0.1587972    0.6676930 
H     2.9679415    0.3720307   -1.4668734 
H     2.9194945    2.8029755   -1.2656260 
H    -0.7121342    2.5954899    0.8473543 
C     1.1421371   -1.4014154   -0.5401666 
C     0.2790732   -1.8684072   -1.7266376 
H     0.7470666   -1.8611899    0.3935186 
H     2.1793149   -1.7881625   -0.6497408 
C     0.8248540   -1.3819872   -3.0650157 
O     0.2705302   -0.2643123   -3.6723485 
O     1.9106789   -2.0078846   -3.6649638 
H     2.7596880   -1.6992330   -3.2179660 
N     0.1587244   -3.3356614   -1.6629669 
H    -0.7386206   -1.4216313   -1.6290747 
H    -0.4972545   -3.6555785   -2.4165027 
H     1.0840131   -3.7726467   -1.8944739 
