24
Energy =
C     1.4845006    2.6044604   -0.5376534 
C     0.2700355    2.9256252   -0.0162318 
C    -0.5414912    1.9454467    0.4414929 
C     1.8802557    1.3074050   -0.5971711 
C     1.0653633    0.3206035   -0.1321269 
C    -0.1510907    0.6474575    0.3850762 
O    -0.1681993    4.2513710    0.0588525 
H     0.4949810    4.9280022   -0.3032816 
H    -0.8204267   -0.1290952    0.7496129 
H     2.8513072    1.0647459   -1.0215120 
H     2.1407094    3.3841609   -0.9094550 
H    -1.5091109    2.2137844    0.8514141 
C     1.4944340   -1.1304222   -0.2097320 
C     1.0512324   -1.9018070   -1.4988237 
H     1.1209434   -1.6493725    0.7045011 
H     2.6018863   -1.1904720   -0.1199192 
C     0.3353697   -3.1918945   -1.1476322 
O    -0.8802312   -3.1644438   -0.4720051 
O     0.9225841   -4.4154809   -1.4383790 
H     0.2955615   -5.1513223   -1.1385662 
N     0.2412255   -1.0845354   -2.4238315 
H     1.9632826   -2.2414250   -2.0432122 
H    -0.6561301   -0.7995256   -1.9623678 
H     0.7610497   -0.2236293   -2.7119234 
