24
Energy =
C     0.2849177    2.5063172   -0.5725288 
C    -0.1948255    2.3254723    0.6792511 
C     0.0335535    1.1616478    1.3306604 
C     0.9912484    1.5201772   -1.1800938 
C     1.2223413    0.3437997   -0.5330457 
C     0.7369628    0.1690032    0.7281008 
O    -0.9174353    3.3389540    1.3003492 
H    -1.9098906    3.2355382    1.1159752 
H     0.9066032   -0.7627701    1.2615858 
H     1.3544518    1.6682578   -2.1942217 
H     0.0940538    3.4432139   -1.0846313 
H    -0.3508145    1.0344482    2.3372774 
C     1.9873772   -0.7661994   -1.2260352 
C     1.1473904   -1.5921991   -2.2630893 
H     2.3995885   -1.4667760   -0.4652806 
H     2.8937848   -0.3140593   -1.6813848 
C    -0.3379996   -1.2270616   -2.3212067 
O    -0.7761874   -0.1543625   -3.0891912 
O    -1.2595492   -1.9244727   -1.5514814 
H    -1.2127680   -1.5915244   -0.6008293 
N     1.7887953   -1.6130292   -3.6034387 
H     1.1283368   -2.6474446   -1.9046099 
H     1.1505997   -1.2246284   -4.3412616 
H     2.6639697   -1.0455186   -3.6630393 
