24
Energy =
C     1.8108236    2.4011294    0.7459193 
C     0.8864244    3.1425025    0.1038681 
C     0.0422663    2.5442781   -0.7721060 
C     1.8998159    1.0673221    0.5195951 
C     1.0597106    0.4415843   -0.3611982 
C     0.1240955    1.2087920   -1.0049217 
O     0.8259332    4.5157585    0.3619528 
H     0.1002505    5.0019520   -0.1536771 
H    -0.5787994    0.8188439   -1.7106130 
H     2.6567731    0.5010825    1.0580237 
H     2.4798648    2.8900490    1.4462512 
H    -0.7051733    3.1339599   -1.2925602 
C     1.2709058   -1.0751494   -0.5181006 
C     0.4789969   -2.0389000   -1.4773989 
H     1.2025260   -1.4897546    0.5150314 
H     2.3452325   -1.1933604   -0.7854614 
C    -0.2090480   -3.1688648   -0.6987641 
O    -1.5509487   -3.0689279   -0.3549887 
O     0.5067161   -4.2838997   -0.2612312 
H     1.4832894   -4.2457808   -0.5096246 
N    -0.4284255   -1.3566997   -2.4125817 
H     1.2417586   -2.5647428   -2.0984558 
H    -0.6303402   -1.9912150   -3.2224960 
H    -1.3607356   -1.2171101   -1.9501895 
