24
Energy =
C     0.9696558    2.3661356    0.3487119 
C    -0.1299830    2.7456800   -0.3553383 
C    -0.5824457    1.9630307   -1.3608094 
C     1.6091611    1.2083492    0.0440723 
C     1.1537703    0.4187311   -0.9677888 
C     0.0529113    0.8042315   -1.6700991 
O    -0.8117495    3.9326783   -0.0681016 
H    -0.4142866    4.4613154    0.7007608 
H    -0.3258494    0.1886172   -2.4824212 
H     2.4869139    0.9208717    0.6169774 
H     1.3398929    2.9877523    1.1567557 
H    -1.4607295    2.2778545   -1.9139179 
C     1.8566972   -0.8771891   -1.3111986 
C     1.0601932   -2.1193602   -0.8386225 
H     2.8819822   -0.9092177   -0.8776246 
H     1.9961112   -0.9183558   -2.4162758 
C     1.6112014   -3.3760232   -1.4944624 
O     2.7557539   -3.9919560   -1.0015734 
O     1.0136639   -3.8762182   -2.6418350 
H     1.5233766   -4.6998874   -2.9364491 
N     1.0163892   -2.2084329    0.6430022 
H     0.0134855   -2.0476286   -1.2138533 
H     1.4604814   -3.0958692    0.9862860 
H     1.5491302   -1.4355222    1.1028467 
