24
Energy =
C    -0.8482671    1.3604720    0.3764428 
C    -0.1254432    2.0885713    1.2656322 
C     1.2162608    1.9436956    1.3106367 
C    -0.2274809    0.4927022   -0.4630441 
C     1.1301069    0.3416560   -0.4247372 
C     1.8429310    1.0779572    0.4748454 
O    -0.7349023    2.9912758    2.1423917 
H    -1.7441830    3.0381833    2.0525900 
H     2.9244566    0.9790292    0.5335312 
H    -0.8420173   -0.0646111   -1.1540800 
H    -1.9269270    1.4693505    0.3343838 
H     1.7822006    2.5301054    2.0266797 
C     1.9068247   -0.6145645   -1.3251928 
C     1.1385470   -1.4223705   -2.4071854 
H     2.4400404   -1.3408808   -0.6691367 
H     2.6978108   -0.0297556   -1.8455333 
C     0.2374380   -2.5028352   -1.8081355 
O     0.8182388   -3.6150588   -1.2097055 
O    -1.1493560   -2.3912480   -1.8021513 
H    -1.5366815   -3.2231249   -1.3753222 
N     0.4943558   -0.5448784   -3.4131322 
H     1.9072004   -2.0124909   -2.9548689 
H    -0.5498061   -0.6133223   -3.3837661 
H     0.7501703    0.4621628   -3.2830763 
