24
Energy =
C    -0.4511828    1.6060838    0.8783577 
C    -0.2203022    2.7216388    0.1487733 
C     0.6735694    2.6943638   -0.8667638 
C     0.2086654    0.4555332    0.5905663 
C     1.1117293    0.4203583   -0.4289234 
C     1.3371235    1.5470430   -1.1612494 
O    -0.8980354    3.8992496    0.4461732 
H    -1.7573354    3.9635012   -0.0885768 
H     2.0478470    1.5376572   -1.9832295 
H     0.0043137   -0.4434566    1.1695827 
H    -1.1686141    1.6421545    1.6913076 
H     0.8534624    3.5989896   -1.4378018 
C     1.8314334   -0.8724218   -0.7560906 
C     0.9969158   -1.8907644   -1.5975023 
H     2.1623802   -1.3252946    0.2072224 
H     2.7797044   -0.6514893   -1.2941895 
C     1.0423622   -3.2811097   -0.9769174 
O     0.7700812   -3.4675369    0.3728811 
O     1.3289467   -4.3870569   -1.7660951 
H     0.5033185   -4.6400670   -2.2885333 
N    -0.3941835   -1.4342845   -1.7948528 
H     1.4873419   -1.9979280   -2.5933760 
H    -0.3961140   -0.6167585   -2.4494562 
H    -0.9487023   -2.1830073   -2.2740591 
