24
Energy =
C    -0.2663259    2.1782773   -2.3141681 
C    -0.7896707    2.6667153   -1.1661592 
C    -0.3268989    2.2133059    0.0296271 
C     0.7162943    1.2417055   -2.2795809 
C     1.1878116    0.7934970   -1.0848225 
C     0.6554965    1.2782221    0.0696843 
O    -1.8019345    3.6292007   -1.2443409 
H    -2.1392880    3.9475304   -0.3421324 
H     1.0126714    0.9143216    1.0309979 
H     1.1219522    0.8586987   -3.2131227 
H    -0.6476525    2.5479540   -3.2599140 
H    -0.7427468    2.5944852    0.9559728 
C     2.2627697   -0.2664736   -1.0333304 
C     1.6661451   -1.6711589   -0.7405002 
H     3.0048821    0.0157923   -0.2514600 
H     2.8508704   -0.2636943   -1.9810476 
C     2.0424232   -2.6871471   -1.8216088 
O     3.0204863   -3.6425829   -1.5750144 
O     1.4393565   -2.6516672   -3.0784863 
H     0.7601662   -1.9090212   -3.1538335 
N     2.0788688   -2.0907240    0.6131271 
H     0.5506714   -1.6324412   -0.7685700 
H     1.6603059   -3.0275468    0.8317016 
H     3.1177748   -2.2387914    0.6299548 
