24
Energy =
C    -0.4346021    2.1969561   -0.4119309 
C     0.5889305    2.9667714   -0.8472990 
C     1.8143220    2.4236189   -1.0311993 
C    -0.2320021    0.8806980   -0.1469907 
C     1.0007467    0.3284274   -0.3201016 
C     2.0240442    1.1077368   -0.7699481 
O     0.3783423    4.3149480   -1.1171305 
H     0.5497866    4.8770831   -0.2907939 
H     3.0127319    0.6851424   -0.9282024 
H    -1.0624254    0.2596638    0.1800894 
H    -1.4164723    2.6419540   -0.2893605 
H     2.6214681    3.0503585   -1.3952526 
C     1.2188703   -1.1438308   -0.0275232 
C     0.5750980   -2.1330188   -1.0561386 
H     0.8466378   -1.3331566    1.0046292 
H     2.3080404   -1.3608086    0.0349322 
C    -0.3510884   -3.1451234   -0.3782450 
O    -0.0776727   -3.6013044    0.9051833 
O    -1.4178819   -3.7053816   -1.0675013 
H    -2.2137775   -3.0930678   -0.9698088 
N    -0.1024836   -1.4035035   -2.1499697 
H     1.3878916   -2.7625934   -1.4891223 
H     0.6156585   -0.8854663   -2.7104886 
H    -0.5216908   -2.0953987   -2.8195262 
