24
Energy =
C     0.8910278    2.6477419   -1.1616508 
C     0.0832631    2.7936750   -0.0859762 
C    -0.1308150    1.7490788    0.7464618 
C     1.4965738    1.4571384   -1.4036512 
C     1.2973017    0.4046674   -0.5616661 
C     0.4718635    0.5557453    0.5115643 
O    -0.5373606    4.0148444    0.1575078 
H     0.0519052    4.6077893    0.7315633 
H     0.2813563   -0.2808625    1.1797290 
H     2.1366621    1.3516319   -2.2759904 
H     1.0408890    3.4894058   -1.8290637 
H    -0.7940983    1.8739696    1.5958006 
C     1.9509806   -0.9311671   -0.8420779 
C     1.0660228   -1.8203842   -1.7356746 
H     2.1614200   -1.4649688    0.1125275 
H     2.9397044   -0.7669270   -1.3272481 
C     1.8355088   -3.0428895   -2.2493140 
O     2.9337407   -3.5249552   -1.5458471 
O     1.4213882   -3.7254871   -3.3927348 
H     0.5932719   -3.3149829   -3.7987987 
N    -0.1454041   -2.1902444   -0.9741139 
H     0.7845789   -1.2274399   -2.6374965 
H    -0.9946096   -1.8253995   -1.4666884 
H    -0.2588709   -3.2308732   -0.9008339 
