24
Energy =
C     0.0843077    0.3727958    1.6449889 
C    -0.3731536    1.6287215    1.4412556 
C    -0.0884505    2.2659542    0.2741556 
C     0.8279310   -0.2506824    0.6966493 
C     1.1162373    0.3815161   -0.4744202 
C     0.6514661    1.6454606   -0.6797261 
O    -1.1305399    2.2415506    2.4451236 
H    -1.4481041    3.1753379    2.2104000 
H     0.8668060    2.1683316   -1.6075588 
H     1.1759373   -1.2654290    0.8764741 
H    -0.1571553   -0.1298460    2.5751628 
H    -0.4529200    3.2727968    0.1012214 
C     1.9371046   -0.3156388   -1.5418326 
C     1.1056949   -1.2485301   -2.4602992 
H     2.7474872   -0.9051665   -1.0544570 
H     2.4590926    0.4398468   -2.1695420 
C     0.6170808   -2.4922358   -1.7313281 
O    -0.5049135   -2.4512665   -0.9141807 
O     1.3424148   -3.6727483   -1.8147466 
H     1.1574996   -4.1072001   -2.7073242 
N     0.0074690   -0.5172597   -3.1202341 
H     1.7876698   -1.6386189   -3.2499548 
H    -0.7334852   -0.2811206   -2.4141752 
H     0.3567140    0.3843760   -3.5203919 
