24
Energy =
C    -0.5876313    1.9944332   -0.3712298 
C     0.3738508    2.9165248   -0.6014377 
C     1.6701252    2.5388194   -0.7025477 
C    -0.2637880    0.6663516   -0.2822791 
C     1.0622706    0.2967201   -0.3403203 
C     2.0192443    1.2337248   -0.5699546 
O     0.0325441    4.2606042   -0.7167965 
H    -0.1457953    4.5002704   -1.6861459 
H     3.0650210    0.9485685   -0.6455090 
H    -1.1117456   -0.2386662    0.0560133 
H    -1.6182576    2.3111654   -0.2685363 
H     2.4269985    3.2958202   -0.8775264 
C     1.3955010   -1.1758810   -0.1950974 
C     0.7039463   -2.0378156   -1.2832886 
H     1.0611322   -1.5144692    0.8094396 
H     2.4939386   -1.3449233   -0.2430353 
C    -0.7633802   -1.6729321   -1.5019316 
O    -1.2596739   -0.4227547   -1.0788840 
O    -1.5908013   -2.5129359   -2.2226762 
H    -2.4915279   -2.0636645   -2.3307702 
N     1.4809361   -1.9261819   -2.5285051 
H     0.6985281   -3.1020343   -0.9509496 
H     1.0522782   -2.5663678   -3.2404516 
H     1.3556762   -0.9584192   -2.9135726 
