24
Energy =
C     0.4352615    2.5596551   -1.2653705 
C    -0.3627900    2.6636452   -0.1787220 
C    -0.3926368    1.6544343    0.7323641 
C     1.2097713    1.4604803   -1.4471152 
C     1.1914118    0.4510832   -0.5325806 
C     0.3774425    0.5510129    0.5544160 
O    -1.1406652    3.8153143   -0.0228913 
H    -1.7256254    3.8102174    0.8056387 
H     0.3348066   -0.2508012    1.2876927 
H     1.8334477    1.3892122   -2.3362523 
H     0.4403376    3.3658422   -1.9911368 
H    -1.0350223    1.7264371    1.6035907 
C     2.0331102   -0.7894773   -0.7448000 
C     1.2972222   -1.8417217   -1.5979649 
H     2.2913607   -1.2443843    0.2384323 
H     3.0052757   -0.5181107   -1.2107141 
C     1.0074182   -1.3528373   -3.0182436 
O    -0.3096053   -1.2795645   -3.4490825 
O     2.0206305   -0.9496777   -3.8900894 
H     2.9405603   -1.0859666   -3.5023851 
N     2.0684221   -3.0983326   -1.5688860 
H     0.2972548   -2.0271159   -1.1363648 
H     1.5235531   -3.8456754   -2.0645793 
H     2.9646982   -2.9891243   -2.1002977 
