24
Energy =
C     0.4108458    2.2670098    0.7032800 
C     0.4933407    3.0277702   -0.4123928 
C     0.9407651    2.4876761   -1.5691846 
C     0.7690144    0.9586593    0.6643550 
C     1.2173781    0.4059601   -0.4981881 
C     1.3011873    1.1802261   -1.6164790 
O     0.1235293    4.3683162   -0.3688336 
H    -0.8613029    4.4707040   -0.5911927 
H     1.6427300    0.7530676   -2.5557008 
H     0.6783283    0.3547931    1.5627308 
H     0.0494862    2.7123921    1.6236352 
H     1.0017036    3.1095231   -2.4556022 
C     1.5937502   -1.0601678   -0.5609774 
C     0.4996547   -2.0180933   -1.1611177 
H     1.8573588   -1.4219265    0.4580517 
H     2.5552433   -1.1210593   -1.1123997 
C    -0.7886174   -1.3364829   -1.6741488 
O    -1.4443678   -0.4063344   -0.8785745 
O    -1.4260452   -1.7371931   -2.8449886 
H    -1.6125709   -2.7284611   -2.8130861 
N     1.1172925   -2.9769969   -2.1201105 
H     0.1141423   -2.6218828   -0.3086037 
H     0.5690540   -3.0704995   -3.0056248 
H     2.0604147   -2.6749143   -2.4539461 
