24
Energy =
C    -0.2811109    2.4041878   -0.4225233 
C     0.8111571    3.1686363   -0.6236017 
C     1.9690955    2.5972338   -1.0085805 
C    -0.2221286    1.0582903   -0.5965117 
C     0.9471316    0.4528579   -0.9800203 
C     2.0395396    1.2547539   -1.1848622 
O     0.7401049    4.5463113   -0.4441514 
H     0.9642983    4.7958250    0.5132178 
H     2.9895373    0.8241243   -1.4952334 
H    -1.1344102    0.5353732   -0.4150921 
H    -1.2084168    2.8819840   -0.1236651 
H     2.8381606    3.2244536   -1.1779340 
C     1.1796195   -1.0516966   -1.2212055 
C     0.1517558   -2.2430568   -1.0613108 
H     2.0808486   -1.2982440   -0.6143573 
H     1.5560101   -1.1221412   -2.2670362 
C     0.6956706   -3.3811579   -0.1888322 
O     1.5112802   -3.0998201    0.9020335 
O     0.3539169   -4.7106618   -0.4364591 
H    -0.3744987   -4.7862600   -1.1311368 
N    -1.1956681   -1.8784146   -0.6218251 
H     0.0484800   -2.7030824   -2.0713567 
H    -1.1749757   -1.4614016    0.3396991 
H    -1.6800435   -1.2879984   -1.3371426 
