24
Energy =
C     1.3277942    2.6604306   -0.8964370 
C     0.6508145    2.7959701    0.2753435 
C     0.2878672    1.6934498    0.9693760 
C     1.6390205    1.4254375   -1.3657801 
C     1.2811330    0.3148284   -0.6631935 
C     0.5982427    0.4563979    0.5060212 
O     0.3146144    4.0534085    0.7862833 
H     0.6193984    4.8295354    0.2089714 
H     0.2856920   -0.4216308    1.0668937 
H     2.1739157    1.3328193   -2.3072294 
H     1.6193064    3.5390847   -1.4618015 
H    -0.2589710    1.8147939    1.8982245 
C     1.6091674   -1.0704298   -1.1861051 
C     0.4168645   -1.8137297   -1.8765878 
H     2.0165904   -1.6571890   -0.3320988 
H     2.4566051   -1.0115363   -1.9041743 
C     0.1540883   -3.1913352   -1.2572944 
O     1.1827771   -3.9027173   -0.6512197 
O    -1.0681785   -3.8287896   -1.4365464 
H    -1.1148198   -4.1930506   -2.3762676 
N    -0.7974206   -0.9717696   -1.8901470 
H     0.7115742   -2.0270836   -2.9293281 
H    -0.6619970   -0.1891465   -2.5721676 
H    -1.6171391   -1.5215480   -2.2432633 
