24
Energy =
C    -0.2081992    2.3157462   -1.3284721 
C    -1.0081921    2.2033714   -0.2435083 
C    -0.7468250    1.2664063    0.6967508 
C     0.8565255    1.4866515   -1.4788927 
C     1.1278438    0.5424992   -0.5345775 
C     0.3146820    0.4322741    0.5524139 
O    -2.0969407    3.0553500   -0.0922869 
H    -2.9254233    2.6553879   -0.5196818 
H     0.5075662   -0.3216581    1.3117187 
H     1.4848748    1.5714201   -2.3649364 
H    -0.4310449    3.0722301   -2.0737997 
H    -1.3949141    1.1914557    1.5635738 
C     2.2965335   -0.4026670   -0.7129692 
C     1.8904930   -1.6895120   -1.4715174 
H     2.7079107   -0.6753492    0.2843350 
H     3.1213424    0.1021599   -1.2666099 
C     1.3633061   -1.3757509   -2.8668625 
O     0.1524790   -1.9046439   -3.2934248 
O     2.0836327   -0.5538186   -3.7269107 
H     1.6039986   -0.5247873   -4.6188300 
N     3.0139168   -2.6601278   -1.4896492 
H     1.0340236   -2.1630991   -0.9385245 
H     3.3097239   -2.8724198   -2.4744848 
H     3.8717327   -2.2893556   -1.0177873 
