24
Energy =
C     0.3964271    1.5910743    1.2888473 
C     0.7042916    2.7277151    0.6246196 
C     1.2753776    2.6620889   -0.5989142 
C     0.6656318    0.3816880    0.7343352 
C     1.2434079    0.3031850   -0.4972956 
C     1.5476469    1.4566586   -1.1604555 
O     0.4248821    3.9649524    1.1957178 
H     1.2100264    4.2912714    1.7485330 
H     1.9995383    1.4221677   -2.1490035 
H     0.4170338   -0.5117250    1.2903923 
H    -0.0705141    1.6586573    2.2657310 
H     1.5054596    3.5825031   -1.1254607 
C     1.5423093   -1.0408140   -1.1424618 
C     0.3701459   -1.7487271   -1.9097455 
H     1.9637420   -1.7237182   -0.3714595 
H     2.3843896   -0.9035897   -1.8584512 
C    -0.2134311   -2.9555148   -1.1717799 
O    -0.2326475   -4.1935831   -1.7988719 
O    -0.7932223   -2.8404134    0.0851720 
H    -0.0911307   -2.5920885    0.7595489 
N    -0.6749659   -0.8327142   -2.4360123 
H     0.8386467   -2.2243933   -2.8034183 
H    -1.6317695   -1.1385124   -2.1305263 
H    -0.5883263    0.1560934   -2.1213820 
