24
Energy =
C     0.6082611    2.0639278    0.9162977 
C     0.1476138    2.8432374   -0.0982752 
C     0.3267559    2.4476987   -1.3787361 
C     1.2439560    0.8957246    0.6452526 
C     1.4243233    0.4958911   -0.6440980 
C     0.9616950    1.2805938   -1.6560546 
O    -0.5108204    4.0527946    0.1459791 
H    -0.6093081    4.2779503    1.1299716 
H     1.0957652    0.9797959   -2.6922406 
H     1.6055330    0.2857451    1.4689918 
H     0.4690120    2.3733130    1.9465098 
H    -0.0461101    3.0790811   -2.1779748 
C     2.1262673   -0.8085212   -0.9561352 
C     1.1382516   -1.9124111   -1.4105001 
H     2.7109112   -1.1728048   -0.0807601 
H     2.8782135   -0.6217566   -1.7576728 
C     1.9012753   -3.0797667   -2.0202811 
O     2.7136144   -3.8778328   -1.2264743 
O     1.8257298   -3.3291216   -3.3828609 
H     0.9720426   -3.8328728   -3.5769093 
N     0.2392378   -2.3272325   -0.3047644 
H     0.5086679   -1.5130591   -2.2382382 
H     0.3169811   -3.3559777   -0.1105199 
H     0.4781714   -1.8580371    0.5989512 
