24
Energy =
C     1.1359690    2.5146188   -0.8138463 
C     0.1975984    2.7258848    0.1375580 
C    -0.2696053    1.6886621    0.8697081 
C     1.6054528    1.2615572   -1.0423728 
C     1.1380327    0.2118088   -0.3107913 
C     0.1949350    0.4327026    0.6472606 
O    -0.2812026    4.0115206    0.3687627 
H    -1.0906675    4.2033759   -0.2113320 
H    -0.1921596   -0.3915493    1.2410994 
H     2.3590605    1.1057827   -1.8106345 
H     1.5090958    3.3573733   -1.3860647 
H    -1.0143171    1.8745441    1.6362707 
C     1.6521843   -1.1858734   -0.5739011 
C     1.0216134   -1.8147137   -1.8405312 
H     1.4694601   -1.8498606    0.3017448 
H     2.7600204   -1.1420187   -0.6865076 
C     1.7603167   -3.0790439   -2.2353062 
O     2.4858388   -3.1184197   -3.4209050 
O     1.7745049   -4.1817598   -1.3880894 
H     2.3085650   -4.9230837   -1.8225031 
N    -0.4123813   -2.0837899   -1.6314647 
H     1.1423507   -1.1253593   -2.7087544 
H    -0.5361374   -2.7307157   -0.8151250 
H    -0.9220170   -1.1949712   -1.4200957 
