24
Energy =
C     0.0383718    2.1017519    0.4802995 
C     0.3565311    2.9102505   -0.5562657 
C     1.1353255    2.4348764   -1.5644552 
C     0.4924102    0.8233485    0.5208957 
C     1.2813914    0.3461098   -0.4802252 
C     1.5945319    1.1583025   -1.5279423 
O    -0.1299502    4.2217182   -0.5609327 
H     0.1349323    4.7562926   -1.3811366 
H     2.2046400    0.7873050   -2.3499719 
H     0.2180914    0.1875532    1.3586609 
H    -0.5885897    2.4909495    1.2751189 
H     1.3882638    3.0723140   -2.4048244 
C     1.7694423   -1.0864766   -0.4486137 
C     0.7775505   -2.0479004   -1.1469283 
H     1.9147493   -1.4033210    0.6079560 
H     2.7676685   -1.1638330   -0.9390704 
C     0.6405208   -1.7324342   -2.6273066 
O    -0.6118136   -1.5042016   -3.1812027 
O     1.7626769   -1.6728353   -3.4439501 
H     1.9642734   -2.6139801   -3.7497538 
N     1.1970767   -3.4544002   -0.9554271 
H    -0.2403425   -1.8882991   -0.7146537 
H     2.0678683   -3.5490647   -0.3803742 
H     0.4444994   -3.9839291   -0.4537348 
