24
Energy =
C    -0.7553687    1.7027699    0.3273106 
C     0.0517481    2.7221589   -0.0443842 
C     1.2802303    2.4522283   -0.5612965 
C    -0.3466393    0.4160450    0.1896426 
C     0.8854864    0.1407639   -0.3197314 
C     1.6947803    1.1676176   -0.7001910 
O    -0.4058277    4.0343730    0.1146501 
H     0.2524919    4.7400559   -0.1977413 
H     2.6768416    0.9689254   -1.1249838 
H    -1.0125483   -0.3894142    0.4879648 
H    -1.7344538    1.9317664    0.7335424 
H     1.9330742    3.2622292   -0.8684498 
C     1.3341901   -1.2940772   -0.4942298 
C     0.8117943   -1.9060696   -1.8088957 
H     0.9792048   -1.8997712    0.3676856 
H     2.4465475   -1.3673255   -0.4759179 
C     1.3985534   -1.2111275   -3.0308680 
O     2.7511678   -0.8888133   -3.0960078 
O     0.5809525   -0.9178429   -4.1142357 
H     1.1422921   -0.4772136   -4.8316313 
N     1.1220027   -3.3461953   -1.8035121 
H    -0.2922391   -1.7593890   -1.8764619 
H     0.5068789   -3.8285477   -1.1070640 
H     0.8736911   -3.7557827   -2.7370705 
