24
Energy =
C    -0.0871219    1.4371138    1.2078631 
C    -0.1146292    2.5683428    0.4665683 
C     0.5125659    2.5969816   -0.7395748 
C     0.5658971    0.3353989    0.7584410 
C     1.2067641    0.3632447   -0.4424062 
C     1.1674776    1.4985688   -1.1931934 
O    -0.7949753    3.6836616    0.9653435 
H    -0.7874320    4.4841231    0.3426218 
H     1.6410267    1.5221774   -2.1716945 
H     0.5631050   -0.5685807    1.3619984 
H    -0.6011001    1.4229600    2.1630664 
H     0.4842117    3.4942252   -1.3483773 
C     1.9176140   -0.8707058   -0.9636462 
C     1.0552258   -1.7623997   -1.9235367 
H     2.2461720   -1.4935798   -0.1016077 
H     2.8697926   -0.5455547   -1.4326198 
C    -0.3886363   -1.2979285   -2.0952670 
O    -1.4062007   -1.9256360   -1.3833536 
O    -0.7063325   -0.2135018   -2.9070844 
H    -1.7073019   -0.0763217   -2.8796617 
N     1.7045281   -1.9504671   -3.2422002 
H     0.9538369   -2.7586002   -1.4313918 
H     2.6292642   -1.4737672   -3.3362383 
H     1.8622464   -2.9698345   -3.4228112 
