24
Energy =
C    -1.0411378    1.6230309   -0.1476872 
C    -0.2655360    2.6846504   -0.4946570 
C     1.0334753    2.4868242   -0.8150069 
C    -0.5134576    0.3730963   -0.1188757 
C     0.7975035    0.1743750   -0.4295020 
C     1.5670876    1.2395344   -0.7856110 
O    -0.7775850    3.9858559   -0.5301711 
H    -1.7624656    4.0506325   -0.2975147 
H     2.6104687    1.1008543   -1.0616557 
H    -1.1478740   -0.4670956    0.1519381 
H    -2.0854409    1.7713163    0.1042028 
H     1.6392756    3.3396092   -1.1018507 
C     1.3808388   -1.2229028   -0.4208702 
C     1.1587847   -1.9469971   -1.7711586 
H     0.9104461   -1.8082267    0.4001443 
H     2.4716457   -1.1839664   -0.1961932 
C     1.8694196   -1.2281722   -2.9154307 
O     1.1618940   -0.8500873   -4.0478467 
O     3.2261767   -0.9325559   -2.8347102 
H     3.7567410   -1.7623275   -3.0524229 
N     1.5343952   -3.3784102   -1.6638443 
H     0.0742382   -1.8988025   -2.0257379 
H     2.3292814   -3.6256999   -2.2995602 
H     1.8287008   -3.6541670   -0.6971583 
