24
Energy =
C    -0.5608321    1.7599134    0.4575106 
C    -0.3051556    2.7185424   -0.4621210 
C     0.6564499    2.5234067   -1.3932250 
C     0.1543252    0.6061311    0.4573596 
C     1.1362368    0.4098618   -0.4663267 
C     1.3784800    1.3739624   -1.3979859 
O    -1.0370258    3.9023695   -0.4546337 
H    -0.5888965    4.5973054    0.1318427 
H     2.1394044    1.2281950   -2.1600146 
H    -0.0683092   -0.1580818    1.1975082 
H    -1.3470419    1.9224079    1.1867229 
H     0.8351104    3.2906695   -2.1384944 
C     1.9195997   -0.8844580   -0.4791364 
C     1.2106281   -1.9836073   -1.2941075 
H     2.0638877   -1.2355721    0.5666508 
H     2.9453413   -0.7237223   -0.8804242 
C     1.1601965   -1.6394165   -2.7792743 
O     0.0526573   -0.9853215   -3.3008275 
O     2.2289468   -1.9258114   -3.6193323 
H     2.9102675   -1.1866875   -3.5474676 
N     1.9109284   -3.2561110   -1.0447807 
H     0.1474203   -2.0673702   -0.9643925 
H     1.6386387   -3.6211721   -0.1019744 
H     1.5963051   -3.9764162   -1.7402434 
