24
Energy =
C    -1.1761925    1.5048252   -0.2991928 
C    -0.6146158    2.7114143   -0.0352563 
C     0.7184257    2.8678237   -0.1685567 
C    -0.4054634    0.4590438   -0.6942240 
C     0.9500382    0.6074339   -0.8326284 
C     1.4964468    1.8297036   -0.5630359 
O    -1.3831233    3.8059161    0.3746727 
H    -2.3763754    3.6120133    0.4439749 
H     2.5678288    1.9887799   -0.6620570 
H    -0.9201071   -0.4679763   -0.8865074 
H    -2.2478594    1.3720275   -0.1952074 
H     1.1550751    3.8376389    0.0444606 
C     1.9180932   -0.4955631   -1.2717834 
C     1.3688756   -1.9291463   -1.6175086 
H     2.7019661   -0.5556077   -0.4883431 
H     2.4639087   -0.0953919   -2.1567046 
C     1.5596191   -2.2502330   -3.0986332 
O     0.5520618   -1.9538839   -4.0055351 
O     2.7644915   -2.7578482   -3.5702643 
H     3.4310067   -2.0053342   -3.6525352 
N     1.9406499   -2.9720059   -0.7257301 
H     0.2771786   -2.0051102   -1.5039007 
H     2.4349813   -3.7225103   -1.2698350 
H     2.6304572   -2.6136069   -0.0280957 
