24
Energy =
C    -0.3030381    2.2592480   -1.9185261 
C    -0.2894941    2.8897100   -0.7133374 
C     0.5230150    2.4367801    0.2684973 
C     0.4949993    1.1822492   -2.1344986 
C     1.3180150    0.7326579   -1.1486293 
C     1.3224974    1.3608116    0.0578408 
O    -1.1003676    4.0004353   -0.4567206 
H    -1.6763484    4.2848254   -1.2416596 
H     1.9659795    1.0074084    0.8594533 
H     0.4729924    0.6855175   -3.1022331 
H    -0.9532601    2.6152319   -2.7102485 
H     0.5233439    2.9465639    1.2256594 
C     2.1841441   -0.4833916   -1.3762750 
C     1.4695880   -1.7885355   -0.9290630 
H     3.1507129   -0.3626349   -0.8338947 
H     2.4887666   -0.5307327   -2.4483853 
C     1.3741305   -2.7937650   -2.0810960 
O     2.3219926   -3.8007918   -2.2178404 
O     0.3689208   -2.6848431   -3.0442991 
H    -0.2505124   -1.9093544   -2.8634161 
N     2.1850160   -2.3403536    0.2354354 
H     0.4126624   -1.5820948   -0.6347661 
H     2.0398882   -1.7104150    1.0592421 
H     1.7772832   -3.2704914    0.4966563 
