24
Energy =
C     0.6473155    2.7876294   -0.9760913 
C    -0.2403724    2.8498901    0.0525567 
C    -0.4562754    1.7548571    0.8163442 
C     1.3143996    1.6337742   -1.2332053 
C     1.1037430    0.5341986   -0.4588970 
C     0.2082203    0.5986721    0.5645730 
O    -0.9449277    4.0223871    0.3434441 
H    -0.7268426    4.7984416   -0.2720313 
H     0.0129267   -0.2759079    1.1810871 
H     2.0152811    1.5965724   -2.0636381 
H     0.8236185    3.6597082   -1.5966272 
H    -1.1713548    1.8161798    1.6295580 
C     1.8287416   -0.7605608   -0.7540362 
C     1.1185735   -1.7958311   -1.7058797 
H     2.0826443   -1.2353026    0.2220888 
H     2.8274248   -0.5206557   -1.1821129 
C     1.0146483   -3.1831294   -1.0768101 
O     0.0312946   -4.0795229   -1.4824146 
O     1.9740114   -3.6161985   -0.1658003 
H     1.7632646   -4.5714496    0.0966171 
N    -0.1977394   -1.3659502   -2.2396919 
H     1.8085650   -1.9659726   -2.5644939 
H    -0.5534179   -0.4441840   -1.9120657 
H    -0.1680892   -1.3304514   -3.2853443 
