24
Energy =
C     0.1034170    2.3522583   -1.6248081 
C    -0.9112613    2.3299738   -0.7305989 
C    -0.9411066    1.3842561    0.2363765 
C     1.0917136    1.4237137   -1.5580208 
C     1.0693912    0.4694111   -0.5853336 
C     0.0424389    0.4513120    0.3090653 
O    -1.9212215    3.2838110   -0.8017614 
H    -2.6812539    2.9593238   -1.3896791 
H     0.0027030   -0.3057962    1.0884335 
H     1.8970291    1.4445967   -2.2920680 
H     0.1155337    3.1193031   -2.3922705 
H    -1.7571644    1.3838746    0.9511839 
C     2.1545588   -0.5835878   -0.5200560 
C     1.7565909   -1.8695364   -1.2690281 
H     2.3753593   -0.8252764    0.5427145 
H     3.1100174   -0.1968868   -0.9451344 
C     1.5397757   -1.6116246   -2.7575545 
O     2.4092999   -0.8000348   -3.4770649 
O     0.4540013   -2.1781139   -3.4105774 
H    -0.3684085   -1.6281163   -3.2135113 
N     2.8043354   -2.8787395   -1.0405803 
H     0.7871968   -2.2444602   -0.8653697 
H     2.7395157   -3.2276062   -0.0556112 
H     2.6275048   -3.7107321   -1.6554663 
