24
Energy =
C     0.0240389    1.1234868    1.4569031 
C    -0.1488422    2.3104494    0.8156179 
C     0.3396083    2.4718183   -0.4350659 
C     0.6857746    0.1077597    0.8463954 
C     1.1849710    0.2726010   -0.4098782 
C     1.0055942    1.4615858   -1.0480826 
O    -0.8224496    3.3775795    1.4182293 
H    -1.1747105    3.1734571    2.3471825 
H     1.3764343    1.6008849   -2.0610751 
H     0.8115322   -0.8359187    1.3711687 
H    -0.3674943    0.9841073    2.4589977 
H     0.1843186    3.4179339   -0.9418950 
C     1.9136846   -0.8600976   -1.1056610 
C     1.0620023   -1.6300593   -2.1757420 
H     2.2751205   -1.5915958   -0.3482140 
H     2.8497930   -0.4419150   -1.5326762 
C    -0.3980713   -1.1913749   -2.2738324 
O    -0.7646352   -0.0851205   -3.0325498 
O    -1.3729274   -1.8524611   -1.5351813 
H    -1.3276612   -1.5367353   -0.5784131 
N     1.7032975   -1.6063959   -3.5108961 
H     0.9901071   -2.6900087   -1.8339660 
H     2.6105279   -1.0889817   -3.5459070 
H     1.8909230   -2.5827169   -3.8408734 
