24
Energy =
C     0.9269523    2.4383720   -0.3342320 
C     0.8345875    2.2433257    1.0005790 
C     1.0064537    1.0056835    1.5166285 
C     1.1816706    1.3920143   -1.1601288 
C     1.3421105    0.1365141   -0.6521687 
C     1.2620337   -0.0457212    0.6971570 
O     0.5733285    3.3181837    1.8442303 
H    -0.4262776    3.4396467    1.9658077 
H     1.3976355   -1.0326087    1.1318802 
H     1.2540228    1.5660832   -2.2295383 
H     0.7981428    3.4381972   -0.7341676 
H     0.9384118    0.8646032    2.5899724 
C     1.6306189   -1.0346473   -1.5782752 
C     0.3745026   -1.5970956   -2.2930060 
H     2.1315028   -1.8538897   -1.0146499 
H     2.3636408   -0.7074850   -2.3475782 
C    -0.5543050   -2.3952212   -1.3659454 
O    -0.3039959   -2.4785961   -0.0023111 
O    -1.6255338   -3.1279454   -1.8792551 
H    -1.6634434   -3.0990166   -2.8858276 
N    -0.3255013   -0.5038158   -2.9939096 
H     0.7332289   -2.3369065   -3.0447323 
H     0.2448061   -0.2102279   -3.8213990 
H    -1.2457092   -0.8320925   -3.3705922 
