24
Energy =
C    -0.4205919    1.5061962    0.8781983 
C    -0.3327430    2.5915643    0.0761796 
C     0.5034335    2.5688165   -0.9961822 
C     0.3215924    0.3996144    0.6215634 
C     1.1667441    0.3743000   -0.4452980 
C     1.2470119    1.4639611   -1.2583836 
O    -1.1126521    3.7136065    0.3743395 
H    -0.9923085    4.4844413   -0.2736805 
H     1.9052726    1.4581006   -2.1237075 
H     0.2278729   -0.4686263    1.2687669 
H    -1.0966199    1.5332942    1.7258500 
H     0.5770104    3.4328269   -1.6479140 
C     1.9787605   -0.8665399   -0.7485710 
C     1.1963756   -1.8540364   -1.6386124 
H     2.2786078   -1.3703848    0.1980536 
H     2.9300002   -0.5768244   -1.2501517 
C     2.1055598   -2.9584098   -2.1804334 
O     3.1432437   -3.4448166   -1.3941607 
O     1.8850457   -3.5344453   -3.4311201 
H     1.0722889   -3.1522369   -3.8913763 
N     0.0619664   -2.4018832   -0.8740544 
H     0.8082283   -1.2900812   -2.5176762 
H    -0.5441120   -2.9681169   -1.5145387 
H     0.4188601   -3.0651846   -0.1432223 
