24
Energy =
C     0.3063782    1.7815211    1.1486388 
C    -0.2590675    2.5912295    0.2242150 
C    -0.1013769    2.3278984   -1.0931588 
C     1.0388651    0.7074473    0.7582439 
C     1.2051774    0.4375368   -0.5668540 
C     0.6295978    1.2557318   -1.4918007 
O    -1.0102076    3.6904507    0.6283435 
H    -0.4227773    4.5121379    0.7185243 
H     0.7478248    1.0572902   -2.5542083 
H     1.4874435    0.0680348    1.5143018 
H     0.1637863    1.9992059    2.2016991 
H    -0.5691373    2.9802490   -1.8227791 
C     2.0103177   -0.7634328   -1.0125673 
C     1.1091652   -1.9151261   -1.5303665 
H     2.6576423   -1.1471253   -0.1911496 
H     2.7165513   -0.4460258   -1.8133435 
C     1.9205496   -2.9602565   -2.2782770 
O     1.3149797   -3.7375331   -3.2593379 
O     3.2762417   -3.1358906   -2.0167823 
H     3.6187579   -3.9003220   -2.5846498 
N     0.3522371   -2.5448529   -0.4269153 
H     0.4049755   -1.5075420   -2.2930829 
H     0.5125903   -2.0759935    0.4939115 
H    -0.6743962   -2.4798679   -0.6228391 
