24
Energy =
C     1.3758669    2.4995784   -1.4483285 
C     0.3058067    2.9306218   -0.7420139 
C    -0.3182667    2.0810722    0.1172656 
C     1.8315899    1.2300073   -1.3005671 
C     1.2155727    0.3783234   -0.4356263 
C     0.1322284    0.8096785    0.2673432 
O    -0.1318658    4.2477206   -0.9173372 
H    -0.9463789    4.4902952   -0.3643402 
H    -0.3803476    0.1396994    0.9527175 
H     2.6865976    0.9002405   -1.8870617 
H     1.8606019    3.1822464   -2.1379105 
H    -1.1800580    2.4161229    0.6840669 
C     1.7043647   -1.0459823   -0.2850669 
C     0.9472577   -2.0153707   -1.2157045 
H     1.5837751   -1.3672757    0.7726228 
H     2.7966159   -1.1108464   -0.4984576 
C     1.2051968   -1.7049016   -2.6859227 
O     0.1501767   -1.6972205   -3.5881206 
O     2.4974894   -1.5079848   -3.1560701 
H     2.8944977   -2.4147828   -3.3531568 
N     1.3506685   -3.3924447   -0.8804314 
H    -0.1515215   -1.8951968   -1.0597075 
H     1.0363892   -3.6184818    0.0933084 
H     0.8351071   -4.0616694   -1.5025680 
