24
Energy =
C     0.8720874    2.5313836   -1.2752703 
C     0.0385808    2.7931475   -0.2426295 
C    -0.2097957    1.8271633    0.6818528 
C     1.4609010    1.3141948   -1.3929674 
C     1.2204954    0.3463566   -0.4666545 
C     0.3766706    0.6084176    0.5695301 
O    -0.5502434    4.0589150   -0.1568957 
H    -1.1583696    4.1776765    0.6460057 
H     0.1609300   -0.1578875    1.3108407 
H     2.1249259    1.1221385   -2.2323171 
H     1.0603059    3.3093660   -2.0073335 
H    -0.8800243    2.0261804    1.5112180 
C     1.8615337   -1.0165529   -0.6076653 
C     1.0832035   -1.9288525   -1.5777761 
H     1.9335416   -1.5257817    0.3807289 
H     2.9094799   -0.8926110   -0.9626598 
C     1.8809733   -3.1834569   -1.9044355 
O     1.6500087   -3.8554959   -3.0983955 
O     2.8280527   -3.6862747   -1.0193789 
H     3.2122977   -4.5369457   -1.4103069 
N    -0.2255466   -2.2631269   -0.9867489 
H     0.9407978   -1.4018135   -2.5503246 
H    -0.8514633   -1.4267000   -1.0551899 
H    -0.6869011   -3.0022155   -1.5714330 
