24
Energy =
C     1.1194625    2.5300754    0.0008420 
C    -0.1921270    2.5510755    0.3323093 
C    -0.8818795    1.3925722    0.4393654 
C     1.7459549    1.3480345   -0.2308693 
C     1.0590796    0.1766103   -0.1192466 
C    -0.2622074    0.2066370    0.2105665 
O    -0.8311354    3.7641881    0.5677142 
H    -1.2284660    4.1314192   -0.2899495 
H    -0.8300325   -0.7175429    0.2836149 
H     2.7982496    1.3481821   -0.5048714 
H     1.6611068    3.4668205   -0.0761712 
H    -1.9322288    1.4246952    0.7081969 
C     1.7481208   -1.1415983   -0.3960859 
C     1.5732466   -1.5731265   -1.8642340 
H     1.3510809   -1.9341249    0.2771666 
H     2.8322045   -1.0547983   -0.1537917 
C     2.5211322   -2.7136140   -2.2024873 
O     2.3870215   -3.9447434   -1.5754033 
O     3.5500581   -2.5230973   -3.1128858 
H     3.1802149   -2.5981156   -4.0492272 
N     0.1618010   -1.9295264   -2.1019251 
H     1.8578181   -0.7195695   -2.5238674 
H     0.0155613   -2.0815695   -3.1281131 
H    -0.0511307   -2.8471435   -1.6379434 
