24
Energy =
C    -0.4162833    0.4166682    1.4932490 
C    -1.0219041    1.5677151    1.1242127 
C    -0.6011173    2.2307760    0.0231004 
C     0.6076670   -0.0819799    0.7552302 
C     1.0296033    0.5711442   -0.3650369 
C     0.4215553    1.7378900   -0.7217323 
O    -2.0717295    2.0755045    1.8830662 
H    -2.9597449    1.7275753    1.5376980 
H     0.7487416    2.2867047   -1.6000831 
H     1.0821388   -1.0099943    1.0652511 
H    -0.7586543   -0.1008792    2.3828298 
H    -1.0884998    3.1597270   -0.2522743 
C     2.1677298    0.0088015   -1.1975810 
C     1.7318008   -1.1256712   -2.1651710 
H     2.9577234   -0.3747877   -0.5136096 
H     2.6548027    0.8205664   -1.7827074 
C     1.1143742   -2.3126466   -1.4242378 
O    -0.2661422   -2.4705097   -1.3688935 
O     1.9155108   -3.2156220   -0.7206359 
H     2.8975269   -2.9974923   -0.8002447 
N     0.8370463   -0.6245547   -3.2312986 
H     2.6589223   -1.5263182   -2.6364246 
H     0.6449568    0.3998306   -3.1543109 
H     1.2685190   -0.7845973   -4.1718185 
