24
Energy =
C     0.5214347    1.3978496    1.5045046 
C     0.5976992    2.6184894    0.9264987 
C     0.9777003    2.7231105   -0.3755758 
C     0.8236321    0.2811980    0.7951822 
C     1.2119372    0.3820965   -0.5055257 
C     1.2802968    1.6093367   -1.0901259 
O     0.2769508    3.7461457    1.6894367 
H     0.3646439    4.6225845    1.1870120 
H     1.5754759    1.7071293   -2.1317472 
H     0.7445230   -0.6949937    1.2702494 
H     0.2116696    1.3260874    2.5414644 
H     1.0379265    3.6973647   -0.8485904 
C     1.5262961   -0.8657045   -1.3002482 
C     0.3290687   -1.5836064   -2.0291875 
H     2.0548483   -1.5728856   -0.6192290 
H     2.3043882   -0.6186019   -2.0567316 
C     0.2843606   -3.0735076   -1.7187597 
O     0.6077868   -3.5559459   -0.4557457 
O    -0.1526811   -3.9684969   -2.6845685 
H    -1.1610153   -3.9290010   -2.7113907 
N    -1.0118867   -0.9884284   -1.8078429 
H     0.5588347   -1.5486268   -3.1208041 
H    -1.0301185   -0.1167053   -1.2376814 
H    -1.4473932   -0.7406792   -2.7273255 
