24
Energy =
C    -0.3945852    2.3176477   -0.6775619 
C     0.2868097    2.7529399   -1.7618688 
C     1.3354962    2.0404174   -2.2340399 
C    -0.0212810    1.1724791   -0.0526580 
C     1.0449249    0.4578982   -0.5117000 
C     1.7161234    0.8942646   -1.6137791 
O    -0.0986282    3.9279807   -2.3987750 
H     0.3787923    4.7276055   -1.9977034 
H     2.5500059    0.3219451   -2.0123089 
H    -0.5858414    0.8264833    0.8094397 
H    -1.2455735    2.8882225   -0.3218831 
H     1.8588463    2.3905501   -3.1174422 
C     1.4521412   -0.8339009    0.1691690 
C     0.7981198   -2.1221725   -0.4226324 
H     1.2434122   -0.7497956    1.2605792 
H     2.5581005   -0.9374866    0.1140667 
C     0.1004807   -2.9484108    0.6527734 
O    -1.1342810   -3.5411838    0.4167053 
O     0.7228475   -3.1594357    1.8759500 
H     0.1320366   -3.7612704    2.4372574 
N    -0.0844948   -1.8087611   -1.5648100 
H     1.6185541   -2.7812136   -0.7873154 
H    -0.3855989   -2.7058605   -2.0168404 
H    -0.9672293   -1.3700903   -1.2086803 
