24
Energy =
C    -0.2375828    2.4826267   -0.5526396 
C    -0.8455107    2.0527867    0.5760321 
C    -0.4490620    0.8855901    1.1489859 
C     0.7611512    1.7566384   -1.1165594 
C     1.1588476    0.5828303   -0.5513651 
C     0.5501017    0.1562731    0.5909489 
O    -1.8692926    2.8304721    1.1276266 
H    -2.2871285    2.4297619    1.9602248 
H     0.8564851   -0.7724932    1.0663316 
H     1.2369871    2.1256878   -2.0208568 
H    -0.5618342    3.4166326   -0.9985194 
H    -0.9296525    0.5325409    2.0549091 
C     2.2756232   -0.2323051   -1.1778938 
C     1.7785163   -1.4505153   -2.0024734 
H     2.9519834   -0.5959751   -0.3697271 
H     2.9079853    0.4105277   -1.8288809 
C     1.0380698   -2.4622359   -1.1414398 
O    -0.3279442   -2.6857047   -1.2869305 
O     1.7341332   -3.1451003   -0.1481681 
H     1.1042267   -3.7913129    0.3107525 
N     0.9826917   -1.0380204   -3.1785358 
H     2.6852988   -1.9983584   -2.3499449 
H     0.8695782   -0.0017898   -3.2488613 
H     1.4535918   -1.3547463   -4.0579872 
