24
Energy =
C     1.1540529    2.6710148   -1.0213855 
C    -0.1058054    2.8662930   -0.5696890 
C    -0.8108719    1.8158330   -0.0713196 
C     1.7179947    1.4375702   -0.9758866 
C     1.0171898    0.3819039   -0.4782389 
C    -0.2528072    0.5797665   -0.0264117 
O    -0.6509891    4.1533587   -0.6269262 
H    -1.6033942    4.2153578   -0.2845472 
H    -0.8290016   -0.2512140    0.3730014 
H     2.7286201    1.3022986   -1.3536621 
H     1.7048597    3.5139571   -1.4245530 
H    -1.8223797    1.9620069    0.2916284 
C     1.6342035   -1.0011523   -0.4282250 
C     1.0960267   -1.9331897   -1.5389689 
H     1.4076509   -1.4464474    0.5667803 
H     2.7442143   -0.9444459   -0.4858589 
C     1.7705136   -1.7027126   -2.8940260 
O     2.1217521   -0.4250738   -3.3046769 
O     1.9601994   -2.7570501   -3.7790325 
H     2.7635411   -3.2936928   -3.4894593 
N     1.2263704   -3.3244457   -1.0663384 
H     0.0158395   -1.7195693   -1.7121181 
H     0.7810686   -3.9682072   -1.7662013 
H     2.2385867   -3.5895417   -1.0137328 
