24
Energy =
C     1.2245794    2.0832355    0.9118212 
C     0.5751217    2.8895943    0.0408585 
C     0.3392422    2.4697535   -1.2234140 
C     1.6346816    0.8490483    0.5228239 
C     1.4003062    0.4196320   -0.7484606 
C     0.7459952    1.2368953   -1.6197943 
O     0.1552934    4.1536439    0.4434352 
H    -0.7847909    4.1160838    0.8215946 
H     0.5489263    0.9117369   -2.6383403 
H     2.1499964    0.2085177    1.2348785 
H     1.4149656    2.4358515    1.9198481 
H    -0.1733182    3.1306881   -1.9139385 
C     1.8414589   -0.9595036   -1.1848786 
C     0.6894659   -1.9861549   -1.1290255 
H     2.6806046   -1.3275763   -0.5502451 
H     2.2499101   -0.9000628   -2.2191039 
C     1.0625102   -3.2746065   -1.8508504 
O     0.0661118   -4.0559536   -2.4243053 
O     2.3850373   -3.6949653   -1.9396844 
H     2.4083186   -4.5841262   -2.4213885 
N     0.3367295   -2.2423541    0.2793127 
H    -0.1943956   -1.5857323   -1.6787222 
H    -0.1426486   -1.3981970    0.6711984 
H    -0.3734452   -3.0127134    0.3205474 
