24
Energy =
C     1.0661142    2.7122514   -1.0988654 
C     0.2385651    2.9338761   -0.0512824 
C    -0.1235538    1.9091440    0.7543788 
C     1.5438657    1.4641457   -1.3392415 
C     1.1952297    0.4311586   -0.5233544 
C     0.3508632    0.6588748    0.5215763 
O    -0.2510135    4.2135025    0.1892443 
H     0.3678160    4.7229039    0.8104688 
H     0.0410881   -0.1631901    1.1645034 
H     2.2006169    1.2978952   -2.1893481 
H     1.3351309    3.5408390   -1.7455121 
H    -0.8026811    2.0978094    1.5789452 
C     1.7024576   -0.9672709   -0.7964705 
C     0.8074785   -1.8986485   -1.6936929 
H     1.9013717   -1.4502600    0.1888950 
H     2.7126367   -0.8950656   -1.2587186 
C     0.5707099   -3.2400292   -1.0159123 
O    -0.1021034   -3.3074715    0.1987606 
O     1.1025963   -4.4039929   -1.5590042 
H     2.0845176   -4.4561266   -1.3328849 
N    -0.4861422   -1.3208746   -2.1334685 
H     1.4064758   -2.1490529   -2.6010508 
H    -0.6863867   -0.3480068   -1.8204996 
H    -0.5431878   -1.3187680   -3.1789373 
