24
Energy =
C     1.1979007    2.3023302   -0.0329787 
C     0.8662986    1.9574052    1.2398691 
C     0.8020731    0.6510140    1.5837154 
C     1.4632957    1.3403759   -0.9529926 
C     1.4012992    0.0246303   -0.6077932 
C     1.0667294   -0.3148089    0.6680877 
O     0.5851688    2.9228286    2.2107860 
H     0.6562404    3.8785966    1.8785962 
H     1.0040920   -1.3608370    0.9623074 
H     1.7227879    1.6279103   -1.9695271 
H     1.2502368    3.3478724   -0.3178398 
H     0.5340460    0.3888754    2.6019539 
C     1.6801535   -1.0513521   -1.6370073 
C     0.4208911   -1.4981960   -2.4070272 
H     2.1379094   -1.9368798   -1.1397504 
H     2.4379772   -0.6899623   -2.3675127 
C    -0.6545130   -2.0655758   -1.4865876 
O    -0.4497410   -3.2911903   -0.8693833 
O    -1.8162551   -1.3558573   -1.2058173 
H    -1.6101103   -0.6359671   -0.5295019 
N    -0.0550266   -0.3983253   -3.2684313 
H     0.7214899   -2.3525415   -3.0573830 
H    -0.7791137   -0.7802620   -3.9233196 
H    -0.5609478    0.3124577   -2.6882250 
