24
Energy =
C    -0.2323347    1.0275494    1.3408040 
C    -0.1908568    2.2506231    0.7645868 
C     0.5028414    2.4253768   -0.3919173 
C     0.4159770   -0.0221727    0.7754023 
C     1.1214148    0.1502404   -0.3762492 
C     1.1548932    1.3801288   -0.9603175 
O    -0.8675763    3.3080586    1.3813600 
H    -0.8202877    4.1829866    0.8702143 
H     1.6889279    1.5284658   -1.8958296 
H     0.3594369   -0.9990471    1.2480374 
H    -0.7974077    0.8991385    2.2577638 
H     0.5322489    3.3992720   -0.8685272 
C     1.8260718   -1.0228638   -1.0293598 
C     1.0406074   -1.6876289   -2.1975134 
H     2.0590926   -1.7962556   -0.2640501 
H     2.8255347   -0.6833183   -1.3849827 
C    -0.3489833   -1.0849028   -2.4638959 
O    -0.4879601   -0.0379536   -3.3688101 
O    -1.4767009   -1.5208778   -1.7674963 
H    -1.2562129   -2.2469434   -1.1031656 
N     1.8951982   -1.6899976   -3.3987471 
H     0.8613638   -2.7504171   -1.9166568 
H     1.4340105   -2.2623875   -4.1464420 
H     1.9588796   -0.7159824   -3.7839895 
