24
Energy =
C    -1.3085205    1.0010126   -0.0035695 
C    -0.9264049    2.1325016    0.6414843 
C     0.3788581    2.4750369    0.6678278 
C    -0.3859450    0.2178738   -0.6189823 
C     0.9391004    0.5556753   -0.5951260 
C     1.3064746    1.6968063    0.0561999 
O    -1.8525592    2.9607978    1.2831021 
H    -2.8101173    2.6301658    1.2289037 
H     2.3512442    1.9960310    0.0941962 
H    -0.7445117   -0.6685375   -1.1192003 
H    -2.3555132    0.7175120   -0.0293257 
H     0.6711482    3.3814894    1.1869832 
C     2.0511350   -0.2594695   -1.2550374 
C     1.7128746   -1.5976818   -1.9726692 
H     2.8107154   -0.4768835   -0.4716260 
H     2.5620066    0.4012957   -1.9904190 
C     0.9925481   -2.6260043   -1.0940916 
O    -0.2757867   -3.0834385   -1.4368661 
O     1.5911761   -3.1351052    0.0600066 
H     2.5176621   -2.7643477    0.2051276 
N     1.0416369   -1.3537373   -3.2634729 
H     2.6836394   -2.0928843   -2.2032897 
H     0.1836936   -0.7700070   -3.1441286 
H     1.6812021   -0.8260599   -3.9033541 
