24
Energy =
C    -0.0358150    1.8717465    0.8626649 
C    -0.1152409    2.7413093   -0.1706649 
C     0.4460966    2.4305608   -1.3615797 
C     0.6143428    0.6898183    0.7111149 
C     1.1898227    0.3736531   -0.4827085 
C     1.0978377    1.2504843   -1.5211824 
O    -0.7836964    3.9510765   -0.0118543 
H    -0.1470513    4.6731627    0.3071500 
H     1.5418868    1.0116141   -2.4844859 
H     0.6644683   -0.0015424    1.5482985 
H    -0.5021220    2.1283063    1.8078497 
H     0.3632432    3.1320127   -2.1848653 
C     1.9004670   -0.9493429   -0.6661555 
C     1.0278821   -1.9880681   -1.4178226 
H     2.2201550   -1.3670800    0.3146972 
H     2.8437500   -0.7651247   -1.2305691 
C     1.8260066   -3.2411068   -1.7967105 
O     3.2075174   -3.1675756   -1.9321836 
O     1.1952725   -4.4438861   -2.1068151 
H     0.1976804   -4.3682765   -1.9710050 
N    -0.1685610   -2.3224542   -0.6183540 
H     0.7093317   -1.5564521   -2.3952084 
H     0.1056998   -2.5822585    0.3602474 
H    -0.8010963   -1.4883785   -0.5548219 
