24
Energy =
C    -1.0561767    1.5714129    0.0540248 
C    -0.3773234    2.6407619   -0.4214707 
C     0.8852334    2.4902344   -0.8836842 
C    -0.4704634    0.3472814    0.0781165 
C     0.8053442    0.1908270   -0.3722784 
C     1.4785289    1.2696508   -0.8614667 
O    -0.9825644    3.8931716   -0.4472202 
H    -0.8086108    4.3937449    0.4174381 
H     2.4907098    1.1614735   -1.2470852 
H    -1.0310378   -0.5044438    0.4554689 
H    -2.0733400    1.7035457    0.4067634 
H     1.4118326    3.3528675   -1.2782240 
C     1.4495781   -1.1776000   -0.3761074 
C     1.0936647   -1.9745491   -1.6438448 
H     1.1185539   -1.7519696    0.5180791 
H     2.5565648   -1.0884261   -0.2877866 
C     1.6249439   -1.3040170   -2.9038183 
O     2.9897017   -1.1067999   -3.0720868 
O     0.7473271   -0.8468993   -3.8761879 
H     0.3811631    0.0503815   -3.5913338 
N     1.6037518   -3.3472245   -1.4835669 
H    -0.0166074   -2.0113821   -1.7499652 
H     1.2737022   -3.9294506   -2.2911298 
H     2.6521098   -3.3411078   -1.5445405 
