24
Energy =
C    -0.8027581    2.0137865   -0.2285103 
C     0.1545829    2.9115667   -0.5550257 
C     1.4461140    2.5027682   -0.6774027 
C    -0.4826581    0.7117294   -0.0224801 
C     0.8092440    0.2978031   -0.1403033 
C     1.7722683    1.2012418   -0.4724405 
O    -0.2152947    4.2442327   -0.7615340 
H     0.5579267    4.8568361   -0.9974352 
H     2.8078420    0.8872232   -0.5782724 
H    -1.2674352    0.0025781    0.2319344 
H    -1.8295349    2.3507975   -0.1357954 
H     2.2203071    3.2156201   -0.9407795 
C     1.1650750   -1.1592307    0.0746612 
C     1.0856839   -2.0744000   -1.1927689 
H     0.5147911   -1.5609492    0.8882240 
H     2.1919354   -1.2248346    0.4987183 
C     0.2003650   -3.2825409   -0.9384751 
O     0.7605567   -4.4642746   -0.4751413 
O    -1.1794367   -3.1898842   -1.0596793 
H    -1.4174075   -3.3057140   -2.0339393 
N     0.6722624   -1.3542505   -2.4137220 
H     2.0972267   -2.5077704   -1.3750249 
H    -0.2706293   -0.9173023   -2.2757254 
H     1.3561155   -0.5928962   -2.6328447 
