24
Energy =
C     1.5104720    2.6340745   -1.1634528 
C     1.6342038    2.7747400    0.1837636 
C     1.6145406    1.6779561    0.9750127 
C     1.3699260    1.3997739   -1.7106401 
C     1.3575398    0.2956217   -0.9146749 
C     1.4733892    0.4417377    0.4336560 
O     1.7781244    4.0318007    0.7798371 
H     1.7889929    4.8026735    0.1207632 
H     1.4506612   -0.4290193    1.0852178 
H     1.2613811    1.3015622   -2.7880703 
H     1.5201920    3.5083179   -1.8054157 
H     1.7109422    1.8038369    2.0477945 
C     1.1779384   -1.0801010   -1.5171468 
C    -0.2929473   -1.6065171   -1.7031723 
H     1.7728722   -1.8001410   -0.9064712 
H     1.6906455   -1.1018423   -2.5051316 
C    -0.4515025   -3.0072317   -1.1194280 
O    -0.9736061   -4.0313882   -1.8968666 
O    -0.0970757   -3.2705001    0.1984422 
H    -0.8448172   -2.9761398    0.8081090 
N    -1.3713351   -0.6805849   -1.2607965 
H    -0.4417219   -1.7636847   -2.7970499 
H    -1.9985638   -1.1187641   -0.5452729 
H    -1.0515388    0.2214004   -0.8497679 
