24
Energy =
C     1.5383829    2.5683048   -0.7672633 
C     0.2992064    2.9625581   -0.3943424 
C    -0.5881859    2.0420563    0.0685888 
C     1.9004167    1.2629078   -0.6815079 
C     1.0171273    0.3385141   -0.2140351 
C    -0.2315616    0.7359954    0.1574320 
O    -0.0356364    4.3162123   -0.4990741 
H    -0.9814370    4.5326518   -0.2028874 
H    -0.9537944    0.0075768    0.5207816 
H     2.8983848    0.9644426   -0.9919237 
H     2.2356550    3.3124768   -1.1373975 
H    -1.5856241    2.3471336    0.3663193 
C     1.4080905   -1.1231093   -0.1296622 
C     1.0603271   -1.9919773   -1.3857270 
H     0.9371532   -1.5507499    0.7866194 
H     2.5009999   -1.1973189    0.0667441 
C     0.2763589   -3.2343158   -0.9962357 
O    -1.0199306   -3.1200512   -0.5091453 
O     0.8852840   -4.4827422   -1.0139171 
H     1.4807719   -4.5748725   -0.2046600 
N     0.3591033   -1.2385427   -2.4430597 
H     2.0079747   -2.3857318   -1.8213708 
H    -0.5686820   -0.8967725   -2.0937987 
H     0.9267299   -0.4173744   -2.7563511 
