24
Energy =
C     1.0549327    2.4739005   -0.4052339 
C     1.0450279    2.2520317    0.9291056 
C     1.2058570    0.9975431    1.4075557 
C     1.2148959    1.4381693   -1.2687363 
C     1.3661222    0.1692758   -0.7958463 
C     1.3669567   -0.0428357    0.5513314 
O     0.8808171    3.3162575    1.8096501 
H    -0.1016340    3.4694300    2.0095495 
H     1.4952074   -1.0467879    0.9515679 
H     1.2337933    1.6377499   -2.3361392 
H     0.9420210    3.4883923   -0.7730917 
H     1.2094586    0.8352802    2.4802832 
C     1.5391232   -0.9963917   -1.7500911 
C     0.2093182   -1.7148480   -2.1044378 
H     2.2361838   -1.7371347   -1.2948970 
H     2.0424604   -0.6610001   -2.6841911 
C    -0.5420955   -2.1943624   -0.8637924 
O    -0.0430635   -3.2659551   -0.1362651 
O    -1.6682558   -1.5292509   -0.3911321 
H    -1.3758184   -0.7240319    0.1413185 
N    -0.6149313   -0.9188688   -3.0477605 
H     0.4812026   -2.6607028   -2.6269134 
H    -1.5593170   -0.6960765   -2.6490538 
H    -0.1755860   -0.0044258   -3.2948720 
