24
Energy =
C     0.2161296    2.3712208   -1.3807066 
C     0.1659535    2.8248171   -0.1073641 
C     0.6883836    2.0835337    0.8962150 
C     0.7824256    1.1680393   -1.6544170 
C     1.3050559    0.4124528   -0.6481100 
C     1.2562223    0.8793170    0.6310133 
O    -0.4152285    4.0583889    0.1688655 
H    -1.4055044    3.9522053    0.3602394 
H     1.6704993    0.2963395    1.4494346 
H     0.8150603    0.8154269   -2.6827378 
H    -0.1978633    2.9816982   -2.1762097 
H     0.6502245    2.4650063    1.9108828 
C     1.9300856   -0.9314003   -0.9547930 
C     0.8667899   -2.0110107   -1.2772745 
H     2.5678662   -1.2832462   -0.1126104 
H     2.6191852   -0.8090932   -1.8224486 
C     1.5264790   -3.2166051   -1.9295505 
O     2.1787014   -4.1752612   -1.1626276 
O     1.5638413   -3.3150348   -3.3128837 
H     2.0480678   -4.1685801   -3.5625310 
N     0.0635787   -2.3599705   -0.0780333 
H     0.1730167   -1.6229421   -2.0581348 
H     0.1711790   -3.3734148    0.1741029 
H     0.3608094   -1.8265815    0.7706021 
