24
Energy =
C     2.3667122    2.5202159   -0.7694637 
C     1.1791106    3.1638807   -0.7633911 
C     0.0306682    2.4549836   -0.6202146 
C     2.4257632    1.1727884   -0.6284285 
C     1.2843514    0.4424253   -0.4984430 
C     0.0638405    1.0876486   -0.5220757 
O     1.1697068    4.5575014   -0.8892638 
H     0.2394774    4.9611829   -0.9112057 
H    -0.9957712    0.4381442   -0.2365411 
H     3.3965960    0.6848195   -0.6194111 
H     3.2749284    3.1027715   -0.8783184 
H    -0.9251696    2.9641332   -0.5867019 
C     1.3709171   -1.0732753   -0.3265507 
C     0.1138175   -1.9345763   -0.7459385 
H     1.6060079   -1.2831306    0.7394582 
H     2.2658339   -1.4020836   -0.8947479 
C    -0.9320142   -1.1713221   -1.5782483 
O    -1.0692687    0.2068209   -1.3649210 
O    -1.8673937   -1.7954163   -2.3985337 
H    -2.0483412   -2.7476527   -2.1219755 
N     0.5473106   -3.2256026   -1.3469200 
H    -0.4432754   -2.1712107    0.1885659 
H    -0.0134362   -3.4783355   -2.1926470 
H     1.5232401   -3.1921503   -1.7196798 
