24
Energy =
C     1.5911337    2.2713226   -2.4127641 
C     0.4164392    2.8709074   -2.1014308 
C    -0.4968765    2.2019214   -1.3696941 
C     1.8432363    1.0075937   -1.9911804 
C     0.9280662    0.3117063   -1.2479186 
C    -0.2529847    0.9364636   -0.9428358 
O     0.1215886    4.1718458   -2.5204957 
H     0.8603775    4.6108149   -3.0593976 
H    -1.0339463    0.4833748   -0.3690128 
H     2.7963574    0.5542693   -2.2563429 
H     2.3338565    2.8009910   -3.0001379 
H    -1.4323491    2.6951518   -1.1276173 
C     1.3473927   -1.1114952   -0.8373586 
C     0.4892281   -2.1360346   -0.0064600 
H     2.3309405   -0.9928226   -0.3248570 
H     1.6045343   -1.6294731   -1.7887442 
C     1.2097994   -2.5775713    1.2621214 
O     1.6792411   -1.6378247    2.1692150 
O     1.3802866   -3.9271438    1.5364448 
H     0.5128977   -4.3032683    1.8905686 
N    -0.8869834   -1.6987658    0.2688811 
H     0.4352018   -3.0687318   -0.6183580 
H    -1.4909399   -2.5375722    0.4424232 
H    -0.9007663   -1.1496664    1.1645932 
