24
Energy =
C     0.3159061    2.3799297   -1.2575221 
C    -0.4435498    2.3866337   -0.1385283 
C    -0.3505036    1.3554969    0.7434098 
C     1.1708153    1.3544713   -1.5023294 
C     1.2736241    0.3241360   -0.6176583 
C     0.5013112    0.3265445    0.5031400 
O    -1.3116963    3.4610318    0.0780679 
H    -1.8476757    3.3929735    0.9365121 
H     0.5589170   -0.4945622    1.2140200 
H     1.7645562    1.3579117   -2.4164067 
H     0.2255281    3.2051210   -1.9564081 
H    -0.9594393    1.3501478    1.6412506 
C     2.2034652   -0.8354624   -0.9012877 
C     1.4957286   -1.9636872   -1.6729385 
H     2.6023722   -1.2459779    0.0533995 
H     3.0923935   -0.4899303   -1.4769617 
C     1.0059089   -1.4983598   -3.0379395 
O     1.8777201   -0.8734676   -3.9203561 
O    -0.3220777   -1.6632900   -3.4008503 
H    -0.8718046   -0.9302464   -2.9774429 
N     2.4214907   -3.1048715   -1.7739089 
H     0.5919814   -2.2805128   -1.1011342 
H     1.9090709   -3.9182329   -2.1931682 
H     3.1874831   -2.8712056   -2.4536681 
