24
Energy =
C     0.2642982    2.3141040   -2.1138837 
C    -0.8990962    2.4966517   -1.4343009 
C    -1.1568611    1.7490069   -0.3371025 
C     1.1636334    1.3903823   -1.6901139 
C     0.9085665    0.6427807   -0.5802005 
C    -0.2624768    0.8215102    0.0898276 
O    -1.8458249    3.4421715   -1.8410451 
H    -1.5903766    3.9483458   -2.6821835 
H    -0.4923223    0.2246725    0.9686842 
H     2.0853238    1.2431435   -2.2515408 
H     0.4755988    2.9022200   -3.0003982 
H    -2.0917180    1.9008585    0.1916517 
C     1.8971893   -0.4077811   -0.1223608 
C     1.6296218   -1.7765088   -0.7923448 
H     1.8422450   -0.5144791    0.9837619 
H     2.9366612   -0.0761262   -0.3485002 
C     1.7910867   -1.7126476   -2.3050041 
O     0.7275862   -2.0436860   -3.1353210 
O     2.9828093   -1.2717061   -2.8722062 
H     3.6239489   -2.0512044   -2.9185155 
N     2.5113387   -2.7997257   -0.2028301 
H     0.5686660   -2.0709759   -0.6157387 
H     3.5121165   -2.4957380   -0.2791542 
H     2.2955811   -2.9075536    0.8164320 
