24
Energy =
C     1.0776336    2.2798329    1.3693892 
C     0.2807129    3.0379475    0.5907233 
C    -0.1698866    2.5400501   -0.5870584 
C     1.4269138    1.0284116    0.9824218 
C     0.9794100    0.5020128   -0.1990690 
C     0.1756807    1.2876255   -0.9832522 
O    -0.0574651    4.3249712    1.0224718 
H    -0.6673282    4.8267922    0.3862479 
H    -0.2213201    0.9756580   -1.9269383 
H     2.0747178    0.4483022    1.6359193 
H     1.4342751    2.6883079    2.3088525 
H    -0.8107578    3.1446935   -1.2201156 
C     1.4636056   -0.9242332   -0.5185697 
C     1.0286929   -1.8109207   -1.7472318 
H     1.2505900   -1.5075460    0.4078748 
H     2.5744227   -0.8673601   -0.5527054 
C     0.5715055   -3.1988684   -1.3010908 
O    -0.3706064   -3.3517657   -0.2892768 
O     1.0956090   -4.3302190   -1.9133821 
H     0.6647978   -5.1509861   -1.5063308 
N     0.0401586   -1.1751135   -2.6303196 
H     1.9473377   -2.0208226   -2.3470312 
H     0.5562920   -0.6014741   -3.3392027 
H    -0.4682878   -1.9011713   -3.1915582 
