24
Energy =
C     1.2697838    2.5543169    0.0057040 
C    -0.0116910    2.7250291    0.4036224 
C    -0.8073666    1.6387482    0.5915134 
C     1.7643546    1.3081851   -0.2057710 
C     0.9725780    0.2172895   -0.0151944 
C    -0.3184868    0.3903643    0.3819573 
O    -0.4838529    4.0252079    0.6092586 
H    -1.4515875    4.0781727    0.9077741 
H    -0.9672511   -0.4709208    0.5284050 
H     2.7950145    1.1910303   -0.5308783 
H     1.8947607    3.4289348   -0.1429649 
H    -1.8361344    1.7678182    0.9075013 
C     1.5124195   -1.1763216   -0.2642519 
C     1.3297821   -1.7257060   -1.7219974 
H     1.0562464   -1.8631667    0.4850551 
H     2.5952274   -1.1950368   -0.0077344 
C     0.7056127   -3.1233702   -1.7476071 
O    -0.2616865   -3.4722617   -0.8105375 
O     1.0506812   -4.0550717   -2.7264180 
H     1.6241359   -3.6441031   -3.4483164 
N     0.5810208   -0.8105639   -2.6026774 
H     2.3491330   -1.8502732   -2.1526524 
H    -0.3848818   -0.6547375   -2.2266350 
H     1.0656308    0.1145393   -2.6734331 
