24
Energy =
C     1.2952020    2.6847469   -1.0186640 
C     0.5862846    2.9456491    0.1040806 
C     0.1995670    1.9314413    0.9115834 
C     1.6150972    1.4054278   -1.3420162 
C     1.2317579    0.3800107   -0.5317836 
C     0.5159661    0.6497301    0.5956256 
O     0.2589487    4.2577563    0.4309892 
H    -0.6338951    4.5163161    0.0258313 
H     0.1913176   -0.1589084    1.2468146 
H     2.1796614    1.2092892   -2.2501253 
H     1.6053377    3.5086976   -1.6525280 
H    -0.3627440    2.1560035    1.8115973 
C     1.5675732   -1.0497675   -0.8951780 
C     0.5137176   -1.8544184   -1.7473752 
H     1.8063919   -1.5881006    0.0504760 
H     2.5380870   -1.0590813   -1.4398800 
C     0.1241849   -3.1811297   -1.0989444 
O     1.0101321   -3.8482853   -0.2573029 
O    -1.0703401   -3.8093652   -1.4287532 
H    -1.1271643   -4.6823931   -0.9227366 
N    -0.6993020   -1.0932717   -2.1354921 
H     1.0370216   -2.1781724   -2.6766094 
H    -0.7691296   -0.1189315   -1.7775812 
H    -0.7756761   -1.0469683   -3.1781334 
