24
Energy =
C    -0.7134903    1.8187923   -1.7936218 
C    -0.6440734    2.5800021   -0.6777056 
C     0.2281265    2.2612151    0.3057708 
C     0.0973146    0.7388698   -1.9341394 
C     0.9818068    0.4136011   -0.9500646 
C     1.0422602    1.1829000    0.1731025 
O    -1.4753700    3.6869462   -0.5382237 
H    -1.0295447    4.5194727   -0.9076187 
H     1.7367919    0.9411074    0.9732028 
H     0.0311347    0.1355169   -2.8364291 
H    -1.4264308    2.0799829   -2.5685675 
H     0.2635882    2.8742657    1.1998739 
C     1.8809941   -0.7941714   -1.1071631 
C     1.1126513   -2.1292890   -0.9332506 
H     2.7315114   -0.7634869   -0.3888648 
H     2.3469926   -0.7559419   -2.1186723 
C     1.9546345   -3.2944250   -1.4386684 
O     1.4582290   -4.1359957   -2.4241272 
O     3.2398367   -3.5027664   -0.9532719 
H     3.1829554   -3.9821216   -0.0675200 
N     0.6485921   -2.3105243    0.4647747 
H     0.2162987   -2.1223896   -1.5958861 
H     1.0551025   -3.1669399    0.9099662 
H     0.8944656   -1.5036962    1.0837069 
