24
Energy =
C     1.1337832    2.2178643    0.9850640 
C    -0.2111708    2.2844529    1.0936792 
C    -0.9798268    1.3381765    0.4939950 
C     1.7185591    1.2170049    0.2802979 
C     0.9577074    0.2696056   -0.3365634 
C    -0.4003326    0.3304610   -0.2089146 
O    -0.7766355    3.3304968    1.8306951 
H    -1.7907843    3.3348157    1.8391241 
H    -1.0392357   -0.4065351   -0.6847627 
H     2.8032157    1.1854514    0.2129150 
H     1.7375520    2.9775145    1.4698930 
H    -2.0605091    1.3889602    0.5752738 
C     1.6517422   -0.8593141   -1.0887274 
C     0.9141070   -1.3912679   -2.3411080 
H     1.8199871   -1.7048827   -0.3856201 
H     2.6640332   -0.5211922   -1.4055438 
C     0.3494391   -0.2856876   -3.2306942 
O    -1.0276896   -0.2017298   -3.3876264 
O     1.1575478    0.6577222   -3.8597875 
H     2.1257481    0.5567821   -3.5998599 
N     1.8157939   -2.3008174   -3.0698461 
H     0.0315800   -1.9837426   -2.0069245 
H     1.3019163   -2.7137384   -3.8863383 
H     2.6138833   -1.7619571   -3.4819008 
