24
Energy =
C    -0.2360122    1.8586101    0.5981621 
C    -0.1419282    2.7494424   -0.4154292 
C     0.6263284    2.4700476   -1.4933333 
C     0.4356196    0.6807656    0.5350627 
C     1.2148252    0.3934670   -0.5448839 
C     1.3002697    1.2936252   -1.5642914 
O    -0.8312190    3.9558247   -0.3469191 
H    -1.7541295    3.8647955   -0.7574275 
H     1.9077366    1.0791009   -2.4402596 
H     0.3404572   -0.0330318    1.3492031 
H    -0.8533751    2.0966983    1.4576693 
H     0.6966392    3.1966664   -2.2957692 
C     1.9471330   -0.9279691   -0.6307122 
C     1.0613583   -2.0188041   -1.2628306 
H     2.2747145   -1.2468078    0.3836101 
H     2.8753211   -0.7975828   -1.2328454 
C     1.8835595   -3.2336584   -1.6677347 
O     2.1774334   -3.4537181   -3.0051800 
O     2.3902787   -4.1041111   -0.7103926 
H     3.1928694   -3.6821086   -0.2681371 
N    -0.0265640   -2.3649274   -0.3287602 
H     0.6239554   -1.6222210   -2.2104834 
H    -0.7084582   -2.9881689   -0.8240630 
H     0.3588622   -2.9392017    0.4605356 
