24
Energy =
C     0.9702428    2.3722791   -1.9677651 
C     0.1020717    2.9002683   -1.0753959 
C    -0.1975061    2.2119380    0.0586643 
C     1.5474726    1.1662516   -1.7351034 
C     1.2585912    0.4777755   -0.5965706 
C     0.3748509    1.0041844    0.2952135 
O    -0.4669647    4.1487118   -1.3474844 
H    -1.1209578    4.4670750   -0.6408879 
H     0.1188651    0.4619532    1.2018242 
H     2.2322069    0.7514209   -2.4715984 
H     1.1916374    2.9257812   -2.8739012 
H    -0.8976699    2.6244103    0.7770853 
C     1.8779679   -0.8800080   -0.3462040 
C     1.0088647   -2.0192068   -0.9298972 
H     2.0043476   -1.0322870    0.7493858 
H     2.9033663   -0.9163979   -0.7777226 
C     0.8863195   -1.9406638   -2.4519725 
O    -0.3345590   -1.5913890   -3.0158871 
O     1.9817847   -2.1306413   -3.2953332 
H     2.7907959   -2.4393610   -2.7812438 
N     1.5306960   -3.3248694   -0.4843039 
H    -0.0370265   -1.9066832   -0.5549991 
H     2.5679212   -3.3823772   -0.6189172 
H     1.3512477   -3.4418349    0.5415520 
