24
Energy =
C     0.9206233    2.0752169   -2.6311005 
C     0.6318973    2.9913304   -1.6683582 
C     0.6765407    2.6291275   -0.3661829 
C     1.2579756    0.8064834   -2.2867228 
C     1.3165406    0.4443756   -0.9752121 
C     1.0155577    1.3630488   -0.0160221 
O     0.2895067    4.3087877   -1.9893644 
H     0.2393902    4.4925861   -2.9854783 
H     1.0261783    1.0849784    1.0349537 
H     1.4743289    0.0833331   -3.0679542 
H     0.8781391    2.3546506   -3.6782950 
H     0.4285104    3.3638949    0.3920727 
C     1.6664731   -0.9790403   -0.5855842 
C     0.4330050   -1.8944164   -0.3007793 
H     2.3082577   -0.9494924    0.3237027 
H     2.3222675   -1.4240198   -1.3661316 
C    -0.9307037   -1.2040541   -0.4211609 
O    -1.5027187   -0.6567758    0.7204444 
O    -1.5766961   -1.0154321   -1.6431257 
H    -1.0922660   -1.4718694   -2.3958382 
N     0.5125127   -3.1314676   -1.1023028 
H     0.4710520   -2.1850546    0.7765783 
H     0.6878978   -2.9164521   -2.1117459 
H     1.3202285   -3.7089307   -0.7678639 
