24
Energy =
C    -0.5330955    1.1480685    1.2293734 
C    -1.1241240    2.0441067    0.3947269 
C    -0.6458510    2.2047366   -0.8597800 
C     0.5338958    0.4235526    0.8074986 
C     1.0222225    0.5901886   -0.4535935 
C     0.4199372    1.4820735   -1.2875579 
O    -2.2213235    2.8114778    0.7997271 
H    -2.5402893    2.6086260    1.7409041 
H     0.7798039    1.6130482   -2.3042848 
H     0.9852950   -0.2990256    1.4832024 
H    -0.9154424    1.0040919    2.2340051 
H    -1.1326861    2.9144609   -1.5192722 
C     2.2002748   -0.2343223   -0.9353963 
C     1.7595012   -1.5412428   -1.6292361 
H     2.8707177   -0.4665129   -0.0786170 
H     2.8113969    0.3677037   -1.6434296 
C     0.9573707   -2.4400863   -0.6810218 
O    -0.4128830   -2.5980191   -0.8478118 
O     1.5799396   -3.1052560    0.3770379 
H     2.5751281   -2.9448275    0.4007216 
N     1.0274362   -1.2034388   -2.8646824 
H     2.6707699   -2.1236783   -1.8966709 
H     1.7072952   -0.9017319   -3.6009604 
H     0.5381736   -2.0539026   -3.2368391 
