24
Energy =
C    -0.3165439    1.5497923    1.0862116 
C    -0.2287665    2.6094973    0.2505835 
C     0.5436696    2.5229567   -0.8651164 
C     0.3591099    0.4037055    0.8180304 
C     1.1325854    0.3106964   -0.2989427 
C     1.2215379    1.3794712   -1.1383977 
O    -0.9400942    3.7729516    0.5619713 
H    -0.8244118    4.5210429   -0.1130522 
H     1.8363647    1.3255504   -2.0333472 
H     0.2747228   -0.4343932    1.5045447 
H    -0.9352175    1.6318466    1.9732957 
H     0.6212050    3.3677816   -1.5409759 
C     1.8864227   -0.9653815   -0.6108210 
C     1.2412008   -1.7650155   -1.7741355 
H     1.9656314   -1.6171869    0.2888973 
H     2.9353339   -0.6976550   -0.8749482 
C     2.1677837   -2.8767113   -2.2781187 
O     3.2087075   -3.3372588   -1.4801179 
O     1.9626037   -3.4733755   -3.5209146 
H     1.1407950   -3.1073725   -3.9803118 
N    -0.1031619   -2.2714538   -1.4035569 
H     1.1226344   -1.0761887   -2.6403137 
H    -0.1616448   -3.3155770   -1.4916017 
H    -0.3492734   -2.0607801   -0.4087144 
