24
Energy =
C    -0.3483469    2.3339772   -0.6377533 
C     0.4208263    2.8406881   -1.6276973 
C     1.5140371    2.1506220   -2.0506004 
C    -0.0336486    1.1465641   -0.0628326 
C     1.0662613    0.4565145   -0.4742492 
C     1.8335731    0.9615561   -1.4790608 
O     0.0647041    4.0687234   -2.1933295 
H     0.6825511    4.3752744   -2.9370342 
H     2.7003317    0.4120640   -1.8371546 
H    -0.6715427    0.7447270    0.7211118 
H    -1.2227896    2.8885763   -0.3154893 
H     2.1316355    2.5450269   -2.8504893 
C     1.4049805   -0.8823010    0.1512645 
C     0.7640079   -2.1125426   -0.5635125 
H     1.1163504   -0.8526012    1.2274414 
H     2.5106132   -1.0058387    0.1634916 
C     0.0016966   -2.9924719    0.4170086 
O    -1.0767491   -2.4805392    1.1270870 
O     0.3978884   -4.3045047    0.6372836 
H     1.1934331   -4.3128199    1.2583860 
N    -0.0772152   -1.7062604   -1.7068671 
H     1.5914761   -2.7494148   -0.9541617 
H    -0.3630613   -2.5607102   -2.2433507 
H    -0.9680738   -1.2829421   -1.3503600 
