24
Energy =
C    -0.5379559    1.9291926    0.1478627 
C     0.0660648    2.8880024   -0.5899219 
C     1.2076878    2.6085149   -1.2591837 
C    -0.0071508    0.6819976    0.2104391 
C     1.1355877    0.3859579   -0.4718447 
C     1.7444283    1.3632350   -1.2020691 
O    -0.4802654    4.1658484   -0.6510686 
H    -1.1092543    4.2483126   -1.4428907 
H     2.6650732    1.1575143   -1.7403028 
H    -0.5076411   -0.0792878    0.8041265 
H    -1.4491382    2.1679107    0.6860810 
H     1.6882985    3.3916515   -1.8354990 
C     1.7213504   -1.0132025   -0.4100363 
C     1.0640142   -2.0084709   -1.4030242 
H     1.6062525   -1.4085203    0.6249969 
H     2.8179235   -0.9847467   -0.5962968 
C    -0.4345765   -2.1593232   -1.1669602 
O    -1.3556117   -1.3535783   -1.8305537 
O    -0.8906275   -3.0658970   -0.2190150 
H    -1.9017752   -3.0334000   -0.1957012 
N     1.4295856   -1.7093036   -2.8105334 
H     1.4665951   -3.0199585   -1.1653871 
H     0.5761123   -1.5775626   -3.4067425 
H     1.9799594   -0.8272928   -2.9040072 
