24
Energy =
C     0.1615250    2.3091979    0.2641244 
C    -0.0412511    2.9308332   -0.9201557 
C     0.4078997    2.3685337   -2.0660160 
C     0.8112926    1.1187826    0.3062181 
C     1.2664747    0.5454533   -0.8430569 
C     1.0568408    1.1766866   -2.0321722 
O    -0.7061218    4.1519321   -0.9597260 
H    -1.7029150    4.0134670   -1.0890318 
H     1.4043122    0.7310396   -2.9611049 
H     0.9510896    0.6201653    1.2622405 
H    -0.2043905    2.7695952    1.1757048 
H     0.2438331    2.8820185   -3.0076377 
C     1.9664131   -0.7987097   -0.8032342 
C     1.0051697   -2.0385834   -0.7790861 
H     2.6134334   -0.8339187    0.1019649 
H     2.6906952   -0.8440488   -1.6439044 
C    -0.4837571   -1.6978576   -0.7762747 
O    -1.1051280   -1.3526784    0.4182282 
O    -1.2196973   -1.6381129   -1.9528565 
H    -1.0894581   -0.7304160   -2.3668009 
N     1.3244522   -3.0047313   -1.8557387 
H     1.1498399   -2.5408794    0.2070334 
H     2.1053919   -2.7093663   -2.4838606 
H     1.5914956   -3.9302516   -1.4442402 
