24
Energy =
C    -0.0740951    2.2766959   -1.4445565 
C     0.0945343    2.7493307   -0.1806931 
C     0.8159503    2.0320983    0.7103605 
C     0.4789268    1.0918223   -1.8093186 
C     1.2078224    0.3707451   -0.9135057 
C     1.3711718    0.8468231    0.3513583 
O    -0.4623722    3.9651904    0.2280435 
H    -0.9867151    4.4446588   -0.4958455 
H     1.9434620    0.2835279    1.0841512 
H     0.3352432    0.7250674   -2.8231623 
H    -0.6521194    2.8452502   -2.1653272 
H     0.9413710    2.4202476    1.7154374 
C     1.8103312   -0.9564040   -1.3171665 
C     0.7654660   -2.0994770   -1.3184393 
H     2.6608410   -1.2278882   -0.6506370 
H     2.2578964   -0.8544696   -2.3326929 
C     1.3110479   -3.3391604   -2.0022578 
O     2.6213621   -3.7472553   -1.7874552 
O     0.4903598   -4.0972228   -2.8231483 
H    -0.0681585   -4.7010724   -2.2366215 
N     0.3258064   -2.4063110    0.0553042 
H    -0.1165092   -1.8033801   -1.9341323 
H     1.1536707   -2.6454511    0.6538453 
H    -0.1470589   -1.5735700    0.4789474 
