24
Energy =
C     0.2968778    2.5131398   -1.4851806 
C    -0.4705751    2.6616099   -0.3812238 
C    -0.4035578    1.7516893    0.6177070 
C     1.1331786    1.4491943   -1.5958518 
C     1.2082501    0.5301938   -0.5925910 
C     0.4287623    0.6840696    0.5137356 
O    -1.3248835    3.7535306   -0.2710085 
H    -2.2379824    3.5329443   -0.6537612 
H     0.4657403   -0.0434729    1.3210339 
H     1.7354839    1.3291987   -2.4958019 
H     0.2325847    3.2519079   -2.2773558 
H    -1.0215888    1.8870489    1.4990375 
C     2.1182622   -0.6716817   -0.7235988 
C     1.4018556   -1.8672028   -1.3780474 
H     2.4887518   -0.9774427    0.2800481 
H     3.0239743   -0.4130043   -1.3177426 
C     1.0016921   -1.5813001   -2.8191994 
O    -0.2300537   -2.0075144   -3.2963236 
O     1.8700944   -0.9205686   -3.6814643 
H     1.4496489   -0.8996013   -4.6031958 
N     2.2775496   -3.0473141   -1.2693381 
H     0.4527238   -2.0650085   -0.8265476 
H     1.7541745   -3.8874296   -1.6159488 
H     3.0926245   -2.9288157   -1.9203468 
