24
Energy =
C    -1.1842910    1.5158252    0.3160767 
C    -0.5559103    2.6842167    0.0535835 
C     0.7548957    2.6759654   -0.3090919 
C    -0.5157055    0.3388146    0.2211020 
C     0.7975966    0.3250217   -0.1383507 
C     1.4286697    1.5017020   -0.4059128 
O    -1.2794541    3.8759774    0.1622765 
H    -0.7400532    4.7081201   -0.0506186 
H     2.4743750    1.5090658   -0.7031516 
H    -1.0389263   -0.5918796    0.4279082 
H    -2.2306820    1.5359828    0.6010508 
H     1.2663905    3.6080655   -0.5242310 
C     1.5420288   -0.9903407   -0.2574532 
C     1.4663676   -1.6999806   -1.6558439 
H     1.1811254   -1.6614777    0.5552763 
H     2.6121871   -0.8239312   -0.0017282 
C     0.9661343   -3.1499216   -1.5593705 
O     1.2322687   -3.8939451   -0.4155786 
O     0.3395439   -3.7913751   -2.6264966 
H     0.2591694   -3.1748313   -3.4213687 
N     0.7112879   -0.9133878   -2.6546713 
H     2.5092823   -1.8151608   -2.0318971 
H    -0.2752335   -0.7599265   -2.3352218 
H     1.1589686    0.0234613   -2.7973897 
