24
Energy =
C     0.8200595    2.7928579   -0.9576598 
C     0.0463690    2.9103929    0.1458716 
C    -0.1671091    1.8239434    0.9356875 
C     1.3840719    1.6008011   -1.2794244 
C     1.1801080    0.5133465   -0.4870705 
C     0.3950781    0.6298314    0.6196069 
O    -0.5188829    4.1549496    0.4422865 
H    -1.0845345    4.1614414    1.2840876 
H     0.2062032   -0.2346550    1.2525098 
H     1.9960838    1.5247096   -2.1746953 
H     0.9794273    3.6659134   -1.5814323 
H    -0.7908694    1.9066407    1.8192801 
C     1.7881061   -0.8233932   -0.8511550 
C     0.9222270   -1.8065846   -1.7261814 
H     2.1073608   -1.3182801    0.0953050 
H     2.7525109   -0.6453347   -1.3769683 
C     0.7965635   -3.1885031   -1.0894208 
O    -0.2796266   -4.0177254   -1.3881108 
O     1.8166570   -3.6871721   -0.2841033 
H     1.5747024   -4.6290985   -0.0012328 
N    -0.4121378   -1.2927919   -2.1236576 
H     1.5098333   -2.0137909   -2.6503575 
H    -0.6749301   -0.3531342   -1.7610752 
H    -0.4856480   -1.2511293   -3.1669408 
