24
Energy =
C     0.3574541    1.0561278    1.5346416 
C    -0.2086336    2.1578088    0.9913849 
C    -0.0751003    2.4051204   -0.3315503 
C     1.0543753    0.1915854    0.7537847 
C     1.1909232    0.4305988   -0.5810754 
C     0.6204619    1.5455532   -1.1187614 
O    -0.9221131    3.0411433    1.7947474 
H    -1.9048403    2.7911455    1.8164620 
H     0.7141901    1.7492937   -2.1829337 
H     1.4997987   -0.6912892    1.2065342 
H     0.2480567    0.8734629    2.5985434 
H    -0.5277200    3.2968177   -0.7516961 
C     1.9561021   -0.5368302   -1.4640575 
C     1.0517788   -1.6053588   -2.1197237 
H     2.7607929   -1.0333421   -0.8750748 
H     2.4775721    0.0289288   -2.2677143 
C     0.4359582   -2.5668719   -1.0912488 
O     1.1884098   -2.9400642    0.0163276 
O    -0.8079585   -3.1744337   -1.2694429 
H    -1.2289755   -2.9549789   -2.1568025 
N     0.0737072   -0.9250738   -2.9924173 
H     1.7092206   -2.2490338   -2.7483841 
H    -0.2627129   -1.5817056   -3.7358426 
H    -0.7578451   -0.6140320   -2.4333711 
