24
Energy =
C    -1.0420486    1.6821517   -0.2542983 
C    -0.3651703    2.8041758    0.0682632 
C     0.9850425    2.8306098   -0.0598452 
C    -0.3864081    0.5817145   -0.7039464 
C     0.9770782    0.5938032   -0.8380740 
C     1.6487379    1.7365744   -0.5084703 
O    -1.0810379    3.9142546    0.5289237 
H    -0.5024809    4.7185006    0.7459373 
H     2.7315062    1.7854545   -0.6019001 
H    -0.9956398   -0.2750988   -0.9407317 
H    -2.1216061    1.6759812   -0.1478554 
H     1.5386761    3.7276346    0.1963188 
C     1.8233702   -0.5820090   -1.3344539 
C     1.1382545   -1.9330818   -1.7181887 
H     2.5772575   -0.7859111   -0.5403072 
H     2.4148804   -0.2067861   -2.1997253 
C     1.3717700   -2.2917808   -3.1830812 
O     0.4072084   -1.9854859   -4.1316301 
O     2.5677174   -2.8664389   -3.5969115 
H     3.2820273   -2.1559135   -3.6409270 
N     1.6181497   -2.9879496   -0.8039653 
H     0.0398302   -1.8974156   -1.6365851 
H     1.0616275   -3.8614361   -0.9682282 
H     2.6088626   -3.2395186   -1.0419952 
