24
Energy =
C     0.2676256    2.3539517   -1.5688272 
C     0.1277358    2.8448768   -0.3085577 
C     0.5868606    2.1283749    0.7423640 
C     0.8627525    1.1509474   -1.7701170 
C     1.3227044    0.4270165   -0.7123846 
C     1.1827773    0.9247895    0.5471677 
O    -0.4823825    4.0797801   -0.0658356 
H    -0.7933692    4.5589619   -0.9039146 
H     1.5471235    0.3673282    1.4061760 
H     0.9707985    0.7731885   -2.7839391 
H    -0.0952225    2.9227241   -2.4181567 
H     0.4716603    2.5327122    1.7421354 
C     1.9791022   -0.9177023   -0.9406985 
C     0.9500677   -2.0200278   -1.3078707 
H     2.5627985   -1.2408889   -0.0484707 
H     2.7283366   -0.8102544   -1.7589895 
C     1.6271735   -3.2657253   -1.8572472 
O     2.9945209   -3.4684547   -1.7106647 
O     0.8720248   -4.2310561   -2.5061276 
H     0.4525786   -4.8201840   -1.8016668 
N     0.1010385   -2.3712865   -0.1482882 
H     0.3191081   -1.6546724   -2.1522276 
H     0.2536191   -1.7353892    0.6684350 
H    -0.9081721   -2.2703537   -0.4106500 
