24
Energy =
C     0.9449357    2.1428138    0.5009805 
C     0.6579880    2.9154035   -0.5805696 
C     0.7181645    2.3786842   -1.8201982 
C     1.2937225    0.8415392    0.3365068 
C     1.3649626    0.3026495   -0.9116122 
C     1.0654541    1.0775884   -1.9906723 
O     0.2967264    4.2597279   -0.4474999 
H     0.2660815    4.5854624    0.5125853 
H     1.0987225    0.6614816   -2.9946432 
H     1.5046526    0.2308500    1.2110357 
H     0.8908130    2.5619171    1.4999101 
H     0.4802237    3.0052716   -2.6731110 
C     1.7315135   -1.1539197   -1.0958513 
C     0.4832894   -2.0565987   -1.0503495 
H     2.4522704   -1.4677110   -0.3086668 
H     2.2592986   -1.2825425   -2.0688708 
C     0.7924799   -3.4457738   -1.5910343 
O     0.7031311   -3.6824784   -2.9547183 
O     1.2629726   -4.4541429   -0.7598853 
H     2.2419257   -4.2985059   -0.5737106 
N    -0.0520096   -2.0816493    0.3244809 
H    -0.2903354   -1.6388986   -1.7378910 
H    -0.9520178   -2.6200487    0.3282574 
H     0.5984519   -2.6171202    0.9482155 
