24
Energy =
C     1.1564432    2.5077173   -1.5168326 
C     0.2816361    2.8831076   -0.5559777 
C    -0.0903458    1.9901773    0.4000938 
C     1.6655065    1.2496415   -1.5302274 
C     1.3019555    0.3551000   -0.5706714 
C     0.4148565    0.7305197    0.3909293 
O    -0.2213742    4.1878803   -0.5762679 
H    -0.8715535    4.3923031    0.1747503 
H     0.1040714    0.0256092    1.1582904 
H     2.3585744    0.9625612   -2.3193828 
H     1.4404265    3.2272387   -2.2776267 
H    -0.7943545    2.2809526    1.1724103 
C     1.8439680   -1.0568890   -0.5989226 
C     0.8911854   -2.0268741   -1.3388726 
H     1.9997251   -1.4110981    0.4448309 
H     2.8457585   -1.0778530   -1.0882945 
C     0.6733989   -1.5999943   -2.7856196 
O     1.7321919   -1.6056824   -3.6846002 
O    -0.5686519   -1.1428675   -3.2030130 
H    -0.6780669   -0.1807452   -2.9169913 
N     1.3795667   -3.4232961   -1.2214878 
H    -0.1178569   -1.9759815   -0.8672432 
H     1.5983865   -3.8317614   -2.1643975 
H     2.2688179   -3.4963854   -0.6732349 
