24
Energy =
C     0.1853001    1.7659927    1.0520919 
C    -0.2282675    2.6090619    0.0781180 
C     0.0716262    2.3485512   -1.2150575 
C     0.8950096    0.6531231    0.7350183 
C     1.1995188    0.3834884   -0.5652569 
C     0.7807364    1.2376208   -1.5403410 
O    -0.9553499    3.7486458    0.4071150 
H    -1.9506301    3.5537993    0.4046669 
H     1.0140687    1.0396705   -2.5839474 
H     1.2168329   -0.0169046    1.5283303 
H    -0.0538057    1.9926104    2.0857284 
H    -0.2574982    3.0392782   -1.9841129 
C     1.9770307   -0.8614145   -0.9289655 
C     1.0592169   -1.9921097   -1.4514965 
H     2.5681311   -1.2312140   -0.0598795 
H     2.7298401   -0.5992807   -1.7080552 
C     1.8875867   -3.1206148   -2.0354398 
O     1.9883441   -3.2632278   -3.4126566 
O     2.6200264   -3.9631177   -1.2098075 
H     2.0100169   -4.7024050   -0.8915438 
N     0.1676472   -2.4804352   -0.3824896 
H     0.4441117   -1.6163517   -2.3030047 
H     0.7276122   -2.7322568    0.4671481 
H    -0.5049169   -1.7267286   -0.1063996 
