24
Energy =
C     0.5847583    1.4567489    1.3211928 
C    -0.0238064    2.4822325    0.6679307 
C     0.0116897    2.5288737   -0.6828705 
C     1.2231919    0.4850482    0.6211650 
C     1.2583697    0.5299231   -0.7394275 
C     0.6486575    1.5600312   -1.3883745 
O    -0.6909041    3.4991521    1.3580208 
H    -0.6716058    3.3949964    2.3668788 
H     0.6672821    1.6163999   -2.4738992 
H     1.7067727   -0.3264396    1.1595635 
H     0.5628856    1.4116742    2.4048118 
H    -0.4771724    3.3536231   -1.1902229 
C     1.9609016   -0.5546579   -1.5272474 
C     0.9605459   -1.5261507   -2.2075512 
H     2.6556516   -1.1382417   -0.8806406 
H     2.6113525   -0.0774590   -2.2955413 
C     1.6475144   -2.3704605   -3.2677021 
O     0.9867476   -2.6645635   -4.4552208 
O     2.9462852   -2.8326367   -3.0858388 
H     3.1969201   -3.4051260   -3.8810590 
N     0.2886966   -2.3910922   -1.2134952 
H     0.2030556   -0.9322377   -2.7709598 
H     0.5442499   -2.1491131   -0.2287215 
H    -0.7492900   -2.2799856   -1.2936447 
