24
Energy =
C    -0.9008385    1.7849549    0.0338076 
C    -0.2144619    2.7764447   -0.5784507 
C     1.0478084    2.5422390   -1.0274644 
C    -0.3383153    0.5619954    0.2029212 
C     0.9268161    0.3232771   -0.2403864 
C     1.6153668    1.3205171   -0.8612609 
O    -0.8291119    4.0227555   -0.7350736 
H    -0.2500869    4.7139420   -1.1995905 
H     2.6242227    1.1456310   -1.2282729 
H    -0.9088305   -0.2247053    0.6902499 
H    -1.9077870    1.9823658    0.3850895 
H     1.6053032    3.3307893   -1.5216717 
C     1.5549819   -1.0431040   -0.0716576 
C     1.4516696   -1.8903781   -1.3579047 
H     1.0769832   -1.5905470    0.7722289 
H     2.6242746   -0.9113321    0.2146879 
C     2.3826743   -3.0961876   -1.2715290 
O     3.6114077   -3.0468842   -1.9163424 
O     2.0611388   -4.2229740   -0.5173295 
H     1.1422509   -4.1324391   -0.1081302 
N     0.0478223   -2.2923860   -1.5692932 
H     1.8135618   -1.2929815   -2.2292869 
H    -0.5154353   -1.4478538   -1.8281512 
H    -0.0098913   -2.9272075   -2.4031228 
