24
Energy =
C    -1.6688045    0.7157092    0.0421297 
C    -1.6507363    1.9412421   -0.5455593 
C    -0.4797960    2.4533505   -0.9866845 
C    -0.5177364    0.0119461    0.1880220 
C     0.6636127    0.5254962   -0.2558202 
C     0.6743064    1.7531201   -0.8460341 
O    -2.8176001    2.6949349   -0.7069637 
H    -3.6573247    2.2300943   -0.3788313 
H     1.6028939    2.1802898   -1.2146226 
H    -0.5536701   -0.9704696    0.6509368 
H    -2.6042057    0.2929871    0.3923997 
H    -0.4809159    3.4303265   -1.4578000 
C     1.9511735   -0.2620079   -0.1057253 
C     2.2016737   -1.2692928   -1.2579816 
H     1.9456358   -0.7977521    0.8690608 
H     2.8142828    0.4377037   -0.0487478 
C     1.2024857   -2.4216112   -1.2621257 
O    -0.0571658   -2.2794092   -1.8309377 
O     1.4988646   -3.5974093   -0.5828861 
H     1.3770755   -3.4507839    0.4064898 
N     2.2747123   -0.5818258   -2.5606366 
H     3.1875741   -1.7558945   -1.0780574 
H     1.3266716   -0.2280339   -2.8367355 
H     2.9234618    0.2378611   -2.5095940 
