24
Energy =
C    -0.9559412    1.7455094   -0.3667832 
C    -0.2377892    2.7633805    0.1531782 
C     1.1064580    2.6719247    0.2246739 
C    -0.3350382    0.6221597   -0.8104336 
C     1.0297213    0.5096989   -0.7387974 
C     1.7376899    1.5551819   -0.2155858 
O    -0.8823657    3.9098352    0.6068987 
H    -1.1254163    3.8217882    1.5875163 
H     2.8224871    1.5069968   -0.1478505 
H    -0.9708044   -0.1486851   -1.2137611 
H    -2.0349400    1.8408744   -0.4296997 
H     1.6724445    3.5027741    0.6326529 
C     1.8399683   -0.7026811   -1.2069759 
C     1.1054201   -1.9468148   -1.8325382 
H     2.4708085   -1.0121005   -0.3483659 
H     2.5877292   -0.3195264   -1.9421004 
C     1.5027129   -2.1423245   -3.2894094 
O     0.5328588   -2.1695575   -4.2835765 
O     2.8363278   -2.2978007   -3.6423814 
H     3.0613422   -3.2782207   -3.5566767 
N     1.3690676   -3.1881432   -1.0650008 
H     0.0137822   -1.8069035   -1.8938775 
H     1.9891868   -3.0583564   -0.2333926 
H     0.4683533   -3.5807546   -0.6999146 
