24
Energy =
C     0.8953622    2.5506509   -1.5781544 
C    -0.1491275    2.8046481   -0.7570102 
C    -0.5392045    1.8780492    0.1478525 
C     1.5641651    1.3728838   -1.4873586 
C     1.1856378    0.4399648   -0.5693103 
C     0.1233675    0.6971759    0.2439101 
O    -0.8272660    4.0164128   -0.8477553 
H    -0.4133280    4.7068841   -0.2315046 
H    -0.2054624   -0.0406971    0.9712624 
H     2.3974213    1.1845032   -2.1578658 
H     1.1849955    3.2950983   -2.3118070 
H    -1.3896661    2.0884507    0.7872961 
C     1.9094570   -0.8853813   -0.4742701 
C     1.1607238   -2.0036204   -1.2387851 
H     2.0023256   -1.1649007    0.5988294 
H     2.9517478   -0.7945161   -0.8541927 
C     1.0945199   -1.7416401   -2.7388291 
O    -0.1014728   -1.3435833   -3.3216790 
O     2.2341697   -1.8332775   -3.5318024 
H     2.7874358   -0.9997764   -3.4160876 
N     1.7846520   -3.3063415   -0.9494905 
H     0.0990912   -2.0379408   -0.8989970 
H     2.7798493   -3.3107251   -1.2806679 
H     1.7854378   -3.4888824    0.0814189 
