24
Energy =
C    -0.9576403    1.9011979   -0.6762672 
C    -0.2775676    2.9495139   -1.1888212 
C     1.0611816    2.8455743   -1.4027077 
C    -0.3180030    0.7212903   -0.3994427 
C     1.0450328    0.6354810   -0.5848169 
C     1.7205714    1.7009638   -1.0933887 
O    -0.9743592    4.1292182   -1.4728640 
H    -0.3997983    4.8619733   -1.8743121 
H     2.7946205    1.6491585   -1.2505474 
H    -0.9037925   -0.2447265    0.2018783 
H    -2.0212678    1.9992862   -0.4970977 
H     1.6123655    3.6868715   -1.8088653 
C     1.7825294   -0.6378595   -0.1855146 
C     1.0314338   -1.9941441   -0.4312765 
H     2.0317455   -0.5564019    0.8945228 
H     2.7634216   -0.6663704   -0.7116436 
C    -0.3480995   -1.8491742   -1.1014194 
O    -1.0971495   -0.6847477   -0.8502864 
O    -0.9114678   -2.8204432   -1.9250798 
H    -0.3721225   -3.6681063   -1.9716699 
N     1.9457853   -2.8890951   -1.1636358 
H     0.8125213   -2.4428537    0.5650896 
H     1.6695180   -3.8879960   -1.0174816 
H     1.8950145   -2.6808450   -2.1911969 
