24
Energy =
C     1.2130853    1.9415988    0.8339147 
C     0.7487051    2.8101223   -0.0928372 
C     0.6322054    2.4121647   -1.3876314 
C     1.5644490    0.6793252    0.4797266 
C     1.4609711    0.2789135   -0.8173076 
C     0.9855916    1.1522572   -1.7486640 
O     0.3983230    4.1021659    0.3118650 
H     0.0325783    4.6834584   -0.4345648 
H     0.8675059    0.8422001   -2.7854043 
H     1.9257654   -0.0054396    1.2426153 
H     1.2944409    2.2697413    1.8645741 
H     0.2490745    3.0980580   -2.1356668 
C     1.8319165   -1.1356792   -1.2101722 
C     0.6030319   -2.0752876   -1.2064868 
H     2.5995597   -1.5289886   -0.5066323 
H     2.3122633   -1.1395136   -2.2148133 
C    -0.3854896   -1.7245983   -2.3163153 
O    -1.4840272   -0.9317149   -2.0113049 
O    -0.1594411   -2.0603483   -3.6502177 
H     0.5943510   -2.7229946   -3.7358156 
N     1.0474866   -3.4814999   -1.2775933 
H     0.0246745   -1.9253975   -0.2620792 
H     1.8295536   -3.5994899   -1.9645048 
H     1.4200188   -3.7792556   -0.3438145 
