24
Energy =
C    -0.1136857    1.0250516    1.3856842 
C    -0.0302042    2.2630060    0.8468494 
C     0.6489159    2.4447965   -0.3171684 
C     0.4780521   -0.0329521    0.7752477 
C     1.1688941    0.1460408   -0.3841975 
C     1.2448822    1.3913251   -0.9301005 
O    -0.6496378    3.3280018    1.5091332 
H    -0.5739559    4.2156506    1.0239920 
H     1.7662400    1.5444736   -1.8724470 
H     0.3887588   -1.0208194    1.2187683 
H    -0.6664438    0.8918982    2.3094188 
H     0.7109786    3.4308539   -0.7646671 
C     1.8134235   -1.0324613   -1.0880039 
C     0.9745157   -1.6192061   -2.2762128 
H     2.0045520   -1.8450538   -0.3516649 
H     2.8311554   -0.7199258   -1.4037058 
C    -0.3938539   -0.9475091   -2.4772992 
O    -0.5029051    0.1916993   -3.2687816 
O    -1.5340184   -1.4049136   -1.8109807 
H    -1.3374288   -2.1987583   -1.2219569 
N     1.7433840   -1.6249035   -3.5418803 
H     0.7455706   -2.6774040   -2.0122263 
H     2.7124129   -1.2421228   -3.4619746 
H     1.8276864   -2.6013322   -3.9117515 
