24
Energy =
C    -0.4672619    0.9270756    1.0961972 
C    -0.7344448    2.0457296    0.3837170 
C    -0.0346480    2.3147552   -0.7419055 
C     0.4980608    0.0677062    0.6805397 
C     1.2089737    0.3329390   -0.4507827 
C     0.9334143    1.4613940   -1.1634248 
O    -1.7249248    2.9233459    0.8122138 
H    -2.6242132    2.6691201    0.4178206 
H     1.4812806    1.6844764   -2.0777139 
H     0.6980385   -0.8304280    1.2600877 
H    -1.0316262    0.7285736    2.0012136 
H    -0.2581163    3.2175994   -1.3005913 
C     2.2676417   -0.6373831   -0.9288214 
C     1.6684024   -1.7578033   -1.8016929 
H     2.7795805   -1.0956493   -0.0527107 
H     3.0652026   -0.1037319   -1.4946687 
C     1.1119826   -1.2317812   -3.1280730 
O     1.7714567   -0.2078856   -3.7992703 
O    -0.0299447   -1.7824926   -3.7083826 
H    -0.3738365   -2.5802731   -3.1957365 
N     2.7021847   -2.7869969   -2.0020176 
H     0.8154498   -2.2093485   -1.2453168 
H     2.2868617   -3.6019777   -2.5140151 
H     3.4596323   -2.4070593   -2.6223233 
