24
Energy =
C     2.2165537    2.2809805   -0.9395997 
C     1.0217083    2.9327244   -0.9494256 
C    -0.1113777    2.2628682   -0.6419936 
C     2.2812426    0.9664816   -0.6082102 
C     1.1473581    0.2897286   -0.2903119 
C    -0.0726498    0.9254718   -0.3488238 
O     0.9338213    4.2939152   -1.2605293 
H     1.8217979    4.7204347   -1.5002936 
H    -1.0987163    0.2729080    0.0696923 
H     3.2441829    0.4637776   -0.6006086 
H     3.1271273    2.8143930   -1.1896672 
H    -1.0555738    2.7934240   -0.6432862 
C     1.1619746   -1.1808782    0.0806844 
C     0.3417850   -2.0392085   -0.9211245 
H     0.7254464   -1.2898716    1.0974822 
H     2.2034723   -1.5634504    0.1412994 
C    -1.0263142   -1.4237012   -1.2356723 
O    -1.2523427   -0.0482846   -1.0297824 
O    -2.0340665   -2.1843404   -1.8036179 
H    -1.8049365   -2.3659939   -2.7693169 
N     1.1414625   -2.2327782   -2.1437098 
H     0.1263731   -3.0280380   -0.4536740 
H     1.9970235   -2.7904781   -1.9145783 
H     0.6001518   -2.8140330   -2.8258411 
