24
Energy =
C    -1.4863684    0.8394558    0.7674174 
C    -0.6435807    1.6380100    1.4746638 
C     0.6931592    1.4767644    1.3489099 
C    -0.9884254   -0.1138421   -0.0608129 
C     0.3579245   -0.2764833   -0.1898343 
C     1.1967671    0.5254942    0.5220974 
O    -1.1231973    2.6294865    2.3358420 
H    -2.1348920    2.6896553    2.3777395 
H     2.2742181    0.4103297    0.4359912 
H    -1.6747758   -0.7451006   -0.6200276 
H    -2.5599267    0.9619270    0.8629874 
H     1.3540376    2.1201855    1.9200723 
C     0.9225427   -1.3319670   -1.1172841 
C     1.5056897   -0.7199155   -2.4162273 
H     0.1494221   -2.0889755   -1.3856171 
H     1.7165457   -1.8905394   -0.5718244 
C     2.3163153   -1.7560684   -3.1780307 
O     1.7244014   -2.9316411   -3.6243715 
O     3.6836447   -1.5787835   -3.3569400 
H     4.1622807   -1.8096225   -2.4994798 
N     0.4408050   -0.1622613   -3.2778447 
H     2.2322408    0.0816543   -2.1457145 
H    -0.5052602   -0.1961793   -2.8351188 
H     0.6439000    0.8426426   -3.4925501 
