24
Energy =
C     0.7146497    2.6759414   -0.8693868 
C    -0.0986506    2.7507676    0.2087800 
C    -0.2926348    1.6492136    0.9824838 
C     1.3401601    1.5121756   -1.1797514 
C     1.1584196    0.4099958   -0.4022745 
C     0.3297900    0.4824881    0.6762268 
O    -0.7235673    3.9681363    0.4966605 
H    -1.3214302    3.9420458    1.3155149 
H     0.1553528   -0.3964680    1.2938360 
H     1.9767513    1.4636625   -2.0590835 
H     0.8531554    3.5588658   -1.4839715 
H    -0.9493993    1.6976391    1.8445092 
C     1.8350616   -0.8985273   -0.7593218 
C     1.0779774   -1.7525456   -1.8244035 
H     2.0044128   -1.4820146    0.1749696 
H     2.8605084   -0.6805761   -1.1320610 
C     0.8779350   -3.1951280   -1.3490916 
O     0.3245717   -3.4288345   -0.0952412 
O     1.1977740   -4.2887837   -2.1540104 
H     1.5361070   -4.0147702   -3.0640054 
N    -0.1992214   -1.1277445   -2.2184982 
H     1.7284420   -1.7887661   -2.7267827 
H    -0.6094220   -1.6584352   -3.0234911 
H    -0.8870190   -1.2155999   -1.4305827 
