24
Energy =
C     0.4049107    2.5435711   -1.0618022 
C    -0.7001901    2.3874275   -0.2977533 
C    -0.8900627    1.2232370    0.3786787 
C     1.3237223    1.5492411   -1.1540325 
C     1.1404060    0.3822672   -0.4772442 
C     0.0246166    0.2248472    0.2881867 
O    -1.6227058    3.4361631   -0.2242812 
H    -2.4283138    3.2408115    0.3598001 
H    -0.1415460   -0.7011732    0.8326114 
H     2.2023510    1.6958963   -1.7779657 
H     0.5439956    3.4741675   -1.6018522 
H    -1.7740922    1.0882728    0.9924122 
C     2.1511150   -0.7404714   -0.5874523 
C     1.6941729   -1.8355759   -1.5841444 
H     2.3019555   -1.1840968    0.4210738 
H     3.1477849   -0.3466820   -0.8943841 
C     1.7193131   -1.3731876   -3.0432175 
O     2.4967959   -0.2862787   -3.4286360 
O     0.9937070   -2.0515783   -4.0207911 
H     0.6371517   -2.9268938   -3.6662390 
N     2.5153517   -3.0444448   -1.4029744 
H     0.6307343   -2.0940806   -1.3753508 
H     3.5255449   -2.8153898   -1.5691833 
H     2.4311200   -3.4028992   -0.4218180 
