24
Energy =
C     0.7525560    2.6887867   -0.9301600 
C     0.1174932    2.8110902    0.2580800 
C    -0.0109222    1.7374982    1.0711463 
C     1.2733880    1.4924278   -1.3047978 
C     1.1618150    0.4104347   -0.4848625 
C     0.5065671    0.5374003    0.7032543 
O    -0.4147203    4.0385375    0.6388739 
H     0.2670689    4.5787892    1.1599026 
H     0.3866771   -0.3212226    1.3603071 
H     1.7661156    1.4002242   -2.2690464 
H     0.8302245    3.5530586   -1.5810432 
H    -0.5385808    1.8473050    2.0126506 
C     1.7205030   -0.9330505   -0.9108513 
C     0.7884275   -1.7581546   -1.8590904 
H     1.9952134   -1.5067754    0.0013445 
H     2.6938734   -0.7654720   -1.4225264 
C     0.5257160   -3.1884008   -1.3790129 
O     1.1295904   -3.6973959   -0.2364747 
O    -0.3008555   -4.0228634   -2.1190261 
H     0.2152821   -4.3874374   -2.9059885 
N    -0.4686432   -1.0360725   -2.1393437 
H     1.3314454   -1.8812187   -2.8234863 
H    -0.9982573   -1.5476126   -2.8858199 
H    -1.0813844   -1.0672046   -1.2886904 
