24
Energy =
C     0.4409660    0.7753437    1.5633841 
C     0.0376165    2.0023393    1.1623810 
C     0.2338946    2.3951753   -0.1168437 
C     1.0392130   -0.0674350    0.6832442 
C     1.2393999    0.3191102   -0.6081510 
C     0.8300468    1.5576383   -1.0032717 
O    -0.5740282    2.8630894    2.0675036 
H    -1.5810101    2.7420326    2.0495474 
H     0.9715245    1.8797274   -2.0321411 
H     1.3432964   -1.0560068    1.0166403 
H     0.2764978    0.4738654    2.5924724 
H    -0.0904853    3.3841284   -0.4224459 
C     1.8902222   -0.6236764   -1.6015362 
C     0.8847598   -1.5617567   -2.3029735 
H     2.6735847   -1.2264945   -1.0908932 
H     2.4242450   -0.0350834   -2.3807167 
C     0.2297290   -2.5422521   -1.3384818 
O    -0.9040197   -2.1867506   -0.6192424 
O     0.8062412   -3.7848974   -1.1152261 
H     1.5822532   -3.6845455   -0.4785592 
N    -0.0893214   -0.7652060   -3.0730925 
H     1.4635726   -2.1958053   -3.0146695 
H    -0.6430676   -1.4112949   -3.6850674 
H    -0.7891005   -0.3412888   -2.4156056 
