24
Energy =
C     0.7302291    1.4094640    1.4802574 
C     0.6943439    2.6110023    0.8442128 
C     0.8905185    2.6659738   -0.4927630 
C     0.9652551    0.2723826    0.7772985 
C     1.1744088    0.3287212   -0.5672988 
C     1.1265949    1.5323904   -1.2006436 
O     0.4552094    3.8012175    1.5382254 
H     0.3141919    3.6765240    2.5348137 
H     1.2667680    1.5922838   -2.2765649 
H     0.9769311   -0.6845948    1.2954080 
H     0.5664530    1.3548488    2.5511663 
H     0.8503818    3.6295294   -0.9888164 
C     1.4124727   -0.9426219   -1.3568478 
C     0.1296830   -1.5673495   -1.9873738 
H     1.9297227   -1.6805765   -0.7005263 
H     2.1463547   -0.7326594   -2.1660902 
C    -0.0135719   -3.0337811   -1.6121804 
O    -0.1683806   -3.4075013   -0.2823704 
O     0.0163282   -4.0130121   -2.5932060 
H    -0.0951821   -4.9163710   -2.1499020 
N    -1.0820289   -0.7933219   -1.6507532 
H     0.2551849   -1.5567973   -3.0954787 
H    -1.8923963   -1.1803237   -2.1907216 
H    -1.3134159   -0.9446266   -0.6383869 
