24
Energy =
C    -0.4878810    1.9761079    0.1175924 
C     0.1273624    2.8682415   -0.7039886 
C     1.2217901    2.4890840   -1.4024733 
C    -0.0056517    0.7132307    0.2366596 
C     1.1003944    0.3335834   -0.4599141 
C     1.7088296    1.2278490   -1.2864777 
O    -0.3452822    4.1762417   -0.8511134 
H    -1.1667218    4.3849037   -0.2940567 
H     2.5847780    0.9392710   -1.8642829 
H    -0.5111110    0.0092913    0.8930181 
H    -1.3679171    2.2699505    0.6792650 
H     1.7009053    3.2081257   -2.0583510 
C     1.6208907   -1.0823344   -0.3502702 
C     0.8730974   -2.0446538   -1.2942600 
H     1.5201527   -1.4328347    0.7006723 
H     2.7121880   -1.1209819   -0.5785949 
C     1.0317767   -1.6351167   -2.7552698 
O     2.2899817   -1.5528831   -3.3399208 
O    -0.0849468   -1.2819168   -3.5019494 
H    -0.3357172   -0.3292539   -3.2798400 
N     1.3753692   -3.4079216   -1.0538606 
H    -0.2201483   -2.0052989   -1.0752409 
H     1.0712221   -3.7293491   -0.1045900 
H     0.9364311   -4.0689078   -1.7397217 
