24
Energy =
C    -0.0970326    2.1032748   -1.8206556 
C    -1.1384490    2.0166302   -0.9616725 
C    -1.0973150    1.1382464    0.0664422 
C     0.9970382    1.3182040   -1.6468822 
C     1.0509657    0.4408014   -0.6053351 
C    -0.0078624    0.3483654    0.2458820 
O    -2.2582879    2.8206987   -1.1444855 
H    -2.1581443    3.6964097   -0.6428512 
H     0.0082841   -0.3593730    1.0713371 
H     1.8232729    1.3832394   -2.3550094 
H    -0.1536581    2.7983674   -2.6522186 
H    -1.9471968    1.0685694    0.7372419 
C     2.2539822   -0.4598163   -0.4270243 
C     2.0775626   -1.8139024   -1.1551667 
H     2.4221391   -0.6438353    0.6577914 
H     3.1733484    0.0445088   -0.8045988 
C     1.8478304   -1.6158685   -2.6493075 
O     2.7892754   -0.9442036   -3.4181711 
O     0.6703694   -2.0430260   -3.2442847 
H    -0.0562448   -1.3686401   -3.0551683 
N     3.2242563   -2.7110977   -0.8674547 
H     1.1533216   -2.3081232   -0.7759715 
H     3.7403558   -2.9607051   -1.7482074 
H     3.9372292   -2.2676945   -0.2419727 
