24
Energy =
C     0.5232452    2.6866180   -0.2206999 
C     0.3972451    2.2702558    1.0596691 
C     0.7616709    1.0032495    1.3925116 
C     1.0140327    1.8514948   -1.1710386 
C     1.3929108    0.5861679   -0.8414748 
C     1.2587520    0.1652674    0.4463449 
O    -0.1081837    3.1624725    2.0117806 
H    -0.2189721    2.7638788    2.9375615 
H     1.5130372   -0.8583973    0.7130675 
H     1.0919377    2.2029603   -2.1963112 
H     0.2180630    3.6952577   -0.4767731 
H     0.6448707    0.6569520    2.4136445 
C     1.9297956   -0.3563427   -1.9030417 
C     0.9448058   -1.5051820   -2.3204360 
H     2.8718382   -0.8102178   -1.5220886 
H     2.2643348    0.2420302   -2.7769296 
C    -0.4123219   -1.4702498   -1.6159731 
O    -0.5757904   -2.2045052   -0.4460544 
O    -1.4592951   -0.6612907   -2.0512399 
H    -1.2077919   -0.1859308   -2.9047919 
N     0.7767268   -1.5837619   -3.7902872 
H     1.3884365   -2.4642066   -1.9593777 
H     1.2887098   -0.8433372   -4.3213260 
H     1.1205013   -2.5078438   -4.1445180 
