24
Energy =
C     1.7677071    2.0976329    0.8229813 
C     0.4887795    2.4869206    1.0110065 
C    -0.4973817    1.9284431    0.2633175 
C     2.0706508    1.1540954   -0.1033520 
C     1.0874842    0.5765316   -0.8550921 
C    -0.2016295    0.9853694   -0.6670720 
O     0.2167538    3.4621792    1.9761801 
H    -0.7668643    3.6935134    2.0656509 
H    -1.0192393    0.5685197   -1.2309938 
H     3.1114651    0.8688832   -0.2334568 
H     2.5476281    2.5536847    1.4235053 
H    -1.5278831    2.2354537    0.4073126 
C     1.4763073   -0.4585719   -1.9067747 
C     0.6854090   -1.8079671   -2.0155701 
H     2.5487381   -0.7282672   -1.7692233 
H     1.4434480    0.0518423   -2.8948214 
C     0.3686501   -2.6626765   -0.7714128 
O     0.1030024   -4.0110775   -0.9787107 
O     0.3677976   -2.2185768    0.5516560 
H     0.5699062   -1.2485982    0.6587652 
N    -0.4763485   -1.6868202   -2.9197088 
H     1.3997408   -2.4974038   -2.5289659 
H    -0.9639777   -0.7724090   -2.8312865 
H    -0.1610352   -1.7506003   -3.9171372 
