24
Energy =
C    -0.8097056    1.8455985   -0.2345125 
C    -0.0062391    2.8019208    0.2773961 
C     1.3309132    2.6223106    0.2906781 
C    -0.2819198    0.6961334   -0.7289952 
C     1.0744222    0.4946134   -0.7173708 
C     1.8695996    1.4787317   -0.2006082 
O    -0.5557649    3.9759039    0.7829381 
H    -0.7646306    3.8788005    1.7705340 
H     2.9507888    1.3590775   -0.1788276 
H    -0.9829382   -0.0217460   -1.1219909 
H    -1.8818536    2.0115765   -0.2495244 
H     1.9659631    3.4042461    0.6935633 
C     1.7847188   -0.7547692   -1.2464176 
C     0.9470571   -1.9336523   -1.8710557 
H     2.4277650   -1.1267990   -0.4225215 
H     2.5269377   -0.4022031   -2.0007593 
C     1.2605194   -2.1226673   -3.3505829 
O     0.2266088   -2.2630391   -4.2708608 
O     2.5744286   -2.1445892   -3.8068484 
H     2.5634602   -2.3242239   -4.8021144 
N     1.1564949   -3.2077092   -1.1437271 
H    -0.1336327   -1.7209853   -1.8773777 
H     1.8087920   -3.1389087   -0.3305595 
H     0.2444879   -3.5611027   -0.7691262 
