24
Energy =
C    -0.8569457    1.7605203   -1.8534298 
C    -0.7352832    2.5451503   -0.7492840 
C     0.2133939    2.2603583    0.1714056 
C    -0.0290946    0.6991781   -2.0311394 
C     0.9330337    0.4185026   -1.1093008 
C     1.0443788    1.2017890   -0.0021727 
O    -1.5719951    3.6457167   -0.5363165 
H    -2.2583563    3.7912169   -1.2684167 
H     1.7917765    0.9789530    0.7552728 
H    -0.1431830    0.0768040   -2.9147085 
H    -1.6184407    1.9790558   -2.5942790 
H     0.2954079    2.8882501    1.0516547 
C     1.8435479   -0.7756379   -1.2927439 
C     1.2664713   -2.0366103   -0.6168985 
H     2.8511285   -0.5564284   -0.8708656 
H     2.0093075   -0.9581534   -2.3780870 
C     1.9958091   -3.2919721   -1.0751485 
O     3.3784502   -3.3741733   -0.9875025 
O     1.2837280   -4.3688438   -1.5835133 
H     1.0254873   -4.1750711   -2.5391690 
N     1.3231453   -1.8676581    0.8470004 
H     0.2033142   -2.1630316   -0.9305511 
H     0.8589890   -2.6883898    1.3070279 
H     2.3238907   -1.8892738    1.1613965 
