24
Energy =
C     0.6579759    2.5939638   -1.4305075 
C     0.4880384    2.9099328   -0.1262624 
C     0.7155129    1.9810947    0.8305475 
C     1.0671089    1.3486859   -1.7826400 
C     1.3134868    0.4117426   -0.8241213 
C     1.1268213    0.7339076    0.4863992 
O     0.0682087    4.1874612    0.2305303 
H     0.8641191    4.7984680    0.3771269 
H     1.2920846   -0.0079084    1.2635973 
H     1.1932882    1.1066594   -2.8347034 
H     0.4568834    3.3434720   -2.1882434 
H     0.5559061    2.2428977    1.8709636 
C     1.7492332   -0.9844253   -1.2151220 
C     0.5429910   -1.9283396   -1.3823646 
H     2.4462697   -1.3951275   -0.4495031 
H     2.3261713   -0.9386110   -2.1666774 
C     0.9699610   -3.2332253   -2.0581668 
O     1.5305978   -4.2513059   -1.2957128 
O     0.8760451   -3.4052329   -3.4394120 
H     0.5119606   -2.5873406   -3.9044660 
N    -0.0869836   -2.1526221   -0.0672281 
H    -0.2013363   -1.4389133   -2.0509162 
H    -0.9766715   -2.6899613   -0.2008338 
H     0.5315518   -2.7532458    0.5313377 
