24
Energy =
C     0.7690778    2.4570913    0.8035674 
C    -0.2180001    2.8281882   -0.0518212 
C    -0.6399005    1.9622247   -0.9983914 
C     1.3293419    1.2253898    0.7055168 
C     0.9196092    0.3487297   -0.2559791 
C    -0.0848463    0.7281046   -1.1022406 
O    -0.8176771    4.0896526    0.0220334 
H    -0.4440271    4.6829024    0.7549093 
H    -0.4604578    0.0692496   -1.8747268 
H     2.1115117    0.9466392    1.4078334 
H     1.1106790    3.1432465    1.5710848 
H    -1.4319345    2.2701883   -1.6724605 
C     1.5642028   -1.0336141   -0.2927016 
C     1.4636275   -1.8074061   -1.6412109 
H     1.1330021   -1.6479195    0.5284522 
H     2.6425942   -0.9059575   -0.0376910 
C     2.7130379   -2.6363302   -1.9045874 
O     3.0231855   -3.7237699   -1.0919843 
O     3.5897758   -2.2685251   -2.9195778 
H     4.3586367   -2.9254733   -2.9525724 
N     0.2541909   -2.6551576   -1.6571527 
H     1.4305789   -1.0952292   -2.4973184 
H     0.3637807   -3.4429022   -0.9726686 
H    -0.5848601   -2.1141229   -1.3469564 
