24
Energy =
C     0.3677323    2.2285457   -2.0368770 
C    -0.3595945    2.7064918   -1.0011602 
C    -0.3410246    2.0672634    0.1909593 
C     1.1248138    1.1126909   -1.8810556 
C     1.1552929    0.4686082   -0.6812439 
C     0.4132841    0.9505574    0.3547956 
O    -1.1351527    3.8499527   -1.1648159 
H    -0.6033865    4.6804171   -0.9283847 
H     0.4129384    0.4450028    1.3171199 
H     1.7022602    0.7379554   -2.7228542 
H     0.3335223    2.7437813   -2.9908917 
H    -0.9397769    2.4547049    1.0082454 
C     1.9846779   -0.7847527   -0.5135603 
C     1.3097736   -2.0264399   -1.1453647 
H     2.1955054   -0.9837618    0.5621171 
H     2.9785148   -0.6195199   -0.9884395 
C     2.2640419   -3.2076753   -1.1539654 
O     2.6815773   -3.7629612   -2.3579643 
O     2.7767539   -3.7084276    0.0373901 
H     3.3752009   -4.4951130   -0.1785844 
N     0.0611619   -2.3620763   -0.4379065 
H     1.0771673   -1.8217412   -2.2159459 
H     0.2552929   -2.5057881    0.5820977 
H    -0.6277311   -1.5798363   -0.5327040 
