24
Energy =
C     0.3595377    2.1251619    0.5825711 
C     0.3656852    2.9458162   -0.4927344 
C     0.8185086    2.4829854   -1.6889093 
C     0.8084938    0.8493350    0.4762674 
C     1.2707274    0.3835110   -0.7164945 
C     1.2658007    1.2066032   -1.8014673 
O    -0.0972636    4.2568888   -0.3424292 
H    -0.0796497    4.8026747   -1.1970991 
H     1.6160281    0.8465418   -2.7661870 
H     0.7795793    0.1989615    1.3468714 
H    -0.0161257    2.5001904    1.5284462 
H     0.8215725    3.1319535   -2.5583358 
C     1.7490644   -1.0493183   -0.8456769 
C     0.6295868   -2.0960665   -1.1235817 
H     2.2912753   -1.3372079    0.0821786 
H     2.5217514   -1.0997623   -1.6466700 
C    -0.7790294   -1.5099642   -1.2552578 
O    -1.4937641   -1.1743515   -0.1127633 
O    -1.3545881   -1.2815796   -2.4981532 
H    -1.0417152   -0.3847996   -2.8345771 
N     1.0222806   -2.8932186   -2.3026100 
H     0.5582297   -2.7698050   -0.2371019 
H     1.7731285   -3.5690426   -2.0263635 
H     0.2093526   -3.4725042   -2.6291676 
