24
Energy =
C     1.0215893    2.6338506   -1.1584699 
C     0.1219526    2.7840842   -0.1603115 
C    -0.1813924    1.7242091    0.6357455 
C     1.6262047    1.4362690   -1.3651822 
C     1.3282236    0.3721101   -0.5706809 
C     0.4172361    0.5236133    0.4305066 
O    -0.4745580    4.0354859    0.0253888 
H    -1.1476090    4.0630790    0.7834387 
H     0.1630183   -0.3156022    1.0735456 
H     2.3314401    1.3279960   -2.1859365 
H     1.2451189    3.4838826   -1.7940219 
H    -0.9039319    1.8340613    1.4372557 
C     1.9919933   -0.9719541   -0.7937494 
C     1.0762139   -1.9719235   -1.5586175 
H     2.2554649   -1.3775113    0.2081582 
H     2.9567899   -0.8586632   -1.3375582 
C     1.0067983   -1.6732221   -3.0627177 
O     0.8716773   -0.3667389   -3.5184125 
O     1.0045977   -2.6989518   -4.0016683 
H     0.9073009   -2.3014268   -4.9269316 
N     1.4710068   -3.3725551   -1.2510818 
H     0.0256357   -1.8391339   -1.2151677 
H     1.8122812   -3.8791407   -2.1034983 
H     2.2507610   -3.4424969   -0.5574674 
