24
Energy =
C     0.6290550    2.6664779   -0.8392718 
C    -0.4293944    2.6783010    0.0027553 
C    -0.7590459    1.5484190    0.6843058 
C     1.3641124    1.5376768   -1.0041492 
C     1.0444251    0.4071698   -0.3171714 
C    -0.0280491    0.4162252    0.5223276 
O    -1.1617789    3.8608532    0.1462268 
H    -1.9382830    3.7899271    0.7947599 
H    -0.3098481   -0.4844037    1.0640004 
H     2.2020411    1.5397953   -1.6963803 
H     0.8767644    3.5714419   -1.3835096 
H    -1.6100741    1.5469116    1.3570461 
C     1.8482293   -0.8617393   -0.5182673 
C     1.4393270   -1.7049250   -1.7651184 
H     1.7934834   -1.4773300    0.4101333 
H     2.9248641   -0.5934978   -0.6030186 
C     1.1701112   -3.1544591   -1.3787635 
O     2.1895800   -4.0903105   -1.4657865 
O    -0.0513910   -3.5355413   -0.8369391 
H    -0.7371943   -3.5957485   -1.5741136 
N     0.3154745   -1.0921619   -2.5025774 
H     2.3190949   -1.7411388   -2.4495082 
H     0.1368347   -1.6354956   -3.3802117 
H    -0.5578018   -1.1426220   -1.9243638 
