24
Energy =
C     1.6394511    2.5261563   -0.6179925 
C     0.3523560    2.9404031   -0.5798336 
C    -0.6449214    2.0377690   -0.4388401 
C     1.9351333    1.2063998   -0.5021925 
C     0.9369065    0.2899331   -0.3584201 
C    -0.3576614    0.7160513   -0.3266792 
O     0.0526451    4.2945590   -0.6925014 
H     0.0067441    4.7301455    0.2219794 
H    -1.1691333    0.0017069   -0.2142252 
H     2.9751950    0.8908012   -0.5412600 
H     2.4293357    3.2581905   -0.7487115 
H    -1.6726778    2.3836326   -0.4227921 
C     1.2527897   -1.1872099   -0.2277497 
C     0.8986206   -1.9928052   -1.5108257 
H     0.6885961   -1.5706155    0.6491741 
H     2.3256548   -1.3484669    0.0258413 
C     1.9887006   -1.8489697   -2.5925857 
O     2.7529013   -0.6897619   -2.6515576 
O     2.1960976   -2.8029542   -3.5903690 
H     1.6574302   -3.6387539   -3.4403584 
N     0.6628400   -3.4037520   -1.1381009 
H    -0.0312511   -1.5788090   -1.9647470 
H     0.0327791   -3.4670513   -0.3033489 
H     0.1071034   -3.8666100   -1.8948774 
