24
Energy =
C    -0.0924849    1.8647284   -2.4753783 
C    -0.5113745    2.6154364   -1.4307629 
C    -0.1142652    2.3087454   -0.1746019 
C     0.7350577    0.8082127   -2.2677770 
C     1.1512211    0.5023649   -1.0071753 
C     0.7148110    1.2556171    0.0402360 
O    -1.3597704    3.6965732   -1.6480061 
H    -0.8262231    4.5430721   -1.8125482 
H     1.0168582    1.0102275    1.0552377 
H     1.0606040    0.2093251   -3.1141718 
H    -0.4317847    2.1142722   -3.4750830 
H    -0.4727491    2.9074414    0.6555987 
C     2.0565170   -0.6866168   -0.7690254 
C     1.2482541   -1.9542375   -0.4233161 
H     2.7720084   -0.4596828    0.0543172 
H     2.6805339   -0.8660942   -1.6737627 
C     2.1223299   -3.2062783   -0.5226967 
O     2.6984583   -3.7468619    0.6205279 
O     2.3901050   -3.8031494   -1.7544046 
H     1.9725895   -3.2989678   -2.5218705 
N     0.6361810   -1.7890477    0.9101930 
H     0.4370320   -2.0827890   -1.1769428 
H     0.0538147   -2.6320544    1.1345781 
H     1.3871546   -1.7595413    1.6422052 
