24
Energy =
C     2.2411083    2.2483352   -0.8744641 
C     1.2483888    2.9118819   -0.2385194 
C     0.2496734    2.2230128    0.3608085 
C     2.2351756    0.8921014   -0.9186632 
C     1.2334675    0.1924110   -0.3167547 
C     0.2359673    0.8661468    0.3195532 
O     1.2566656    4.3031909   -0.1961523 
H     0.7355529    4.6889773   -0.9760520 
H    -0.5748144    0.3254983    0.8014520 
H     3.0328112    0.3726090   -1.4460138 
H     3.0376590    2.8113917   -1.3487065 
H    -0.5340733    2.7683762    0.8749547 
C     1.2077419   -1.3175931   -0.3871798 
C     0.3515159   -1.8259078   -1.5612217 
H     0.8153176   -1.7275866    0.5696999 
H     2.2406529   -1.7274320   -0.4829567 
C     0.9508944   -1.4051521   -2.9095608 
O     1.9454350   -2.1755110   -3.4993841 
O     0.5520698   -0.2299880   -3.5482669 
H    -0.0904868    0.3049326   -2.9843894 
N     0.2445536   -3.2897165   -1.4364585 
H    -0.6682858   -1.3802298   -1.4982202 
H    -0.4241489   -3.5278921   -0.6666271 
H    -0.1569628   -3.6979377   -2.3156348 
