24
Energy =
C    -0.8514708    1.7403282   -0.4943248 
C    -0.2252561    2.6204250    0.3164989 
C     1.0592769    2.4100679    0.6766768 
C    -0.1916059    0.6479445   -0.9579314 
C     1.1061228    0.4170949   -0.5952799 
C     1.7251455    1.3190257    0.2208506 
O    -0.9056283    3.7384727    0.7870995 
H    -0.7894761    4.5231042    0.1551643 
H     2.7617037    1.1738685    0.5168052 
H    -0.7334787   -0.0377712   -1.5931211 
H    -1.8883691    1.9152094   -0.7625840 
H     1.5475033    3.1216728    1.3343272 
C     1.9296331   -0.7656766   -1.0987247 
C     1.2074562   -1.9932473   -1.7270617 
H     2.5444090   -1.1477208   -0.2517273 
H     2.6559725   -0.3748454   -1.8457300 
C     0.2929055   -2.7661936   -0.7712991 
O     0.4355241   -4.1424129   -0.6549114 
O    -0.7066110   -2.1414502   -0.0341194 
H    -0.2855083   -1.5940076    0.7011677 
N     0.5837148   -1.6759170   -3.0312834 
H     2.0162347   -2.7267488   -1.9499655 
H    -0.4568180   -1.7969530   -3.0052412 
H     0.8017331   -0.7052293   -3.3581436 
