24
Energy =
C     1.6484698    2.6649226   -0.1183294 
C     0.6088198    3.0324127   -0.9076302 
C    -0.2538442    2.0978726   -1.3699568 
C     1.8255599    1.3584696    0.2169106 
C     0.9635513    0.4142724   -0.2515545 
C    -0.0752599    0.7987878   -1.0300910 
O     0.4322565    4.3698301   -1.2471484 
H    -0.1488750    4.8403640   -0.5620775 
H    -0.7500953   -0.1046947   -1.3776268 
H     2.6583276    1.0789026    0.8563532 
H     2.3355120    3.4246290    0.2390116 
H    -1.0767783    2.3931440   -2.0111365 
C     1.0968173   -1.0531705    0.1359331 
C     0.8230241   -2.0525971   -1.0265508 
H     0.3961475   -1.2624729    0.9737504 
H     2.1230410   -1.2448597    0.5177377 
C    -0.6613647   -2.1034655   -1.4717375 
O    -1.3886007   -0.9363378   -1.7089923 
O    -1.3007613   -3.3179928   -1.7078261 
H    -0.6924467   -4.1113750   -1.5755705 
N     1.7110961   -1.7330249   -2.1543574 
H     1.0822633   -3.0653369   -0.6427990 
H     2.7040120   -1.9118234   -1.8754330 
H     1.5074868   -2.3823041   -2.9519150 
