24
Energy =
C     1.3727527    1.2057021    1.3225971 
C     1.0403925    2.4101428    0.8041351 
C     0.8449483    2.5426340   -0.5279920 
C     1.5033320    0.1260938    0.5102077 
C     1.3008368    0.2498230   -0.8311907 
C     0.9722973    1.4670107   -1.3464835 
O     0.9062027    3.5147193    1.6399582 
H    -0.0522238    3.6096136    1.9575597 
H     0.8122744    1.5859697   -2.4154642 
H     1.7622087   -0.8383155    0.9423423 
H     1.5331448    1.1146370    2.3915602 
H     0.5915684    3.5171459   -0.9310090 
C     1.4385876   -0.9543758   -1.7383121 
C     0.1417893   -1.7846937   -1.8810288 
H     2.2563655   -1.6091251   -1.3585235 
H     1.7668932   -0.6274921   -2.7510301 
C    -0.3707838   -2.3553650   -0.5547683 
O    -0.0322652   -3.6588791   -0.2173448 
O    -1.1397374   -1.6153497    0.3435941 
H    -1.2439978   -0.6576254    0.0520044 
N    -0.8669496   -1.0259708   -2.6470143 
H     0.4085720   -2.6896638   -2.4783261 
H    -1.7348311   -1.6051559   -2.7561327 
H    -1.1478765   -0.1554473   -2.1408950 
