24
Energy =
C     0.4080311    2.3867115   -1.7758951 
C     0.2407230    2.8454535   -0.5142786 
C     0.5326682    2.0493523    0.5397603 
C     0.8797347    1.1312627   -1.9882436 
C     1.1922488    0.3298939   -0.9314016 
C     1.0064826    0.7937279    0.3355520 
O    -0.2427647    4.1325388   -0.3015062 
H     0.5206241    4.7978181   -0.2496815 
H     1.2225227    0.1583440    1.1908701 
H     0.9991820    0.7704135   -3.0069975 
H     0.1525965    3.0304774   -2.6109449 
H     0.3744022    2.4229052    1.5456087 
C     1.6971392   -1.0770520   -1.1639823 
C     0.5365327   -2.0832343   -1.2713524 
H     2.3794977   -1.3856080   -0.3403324 
H     2.3093810   -1.1037944   -2.0937972 
C     1.0329619   -3.4164029   -1.8083995 
O     0.8484435   -3.7386130   -3.1461488 
O     1.7328011   -4.2930101   -0.9900123 
H     1.9875603   -5.1063465   -1.5362795 
N    -0.1181761   -2.2132594    0.0442970 
H    -0.2029541   -1.7072759   -2.0173434 
H    -0.9735158   -2.8088187   -0.0621945 
H     0.5160667   -2.7415709    0.6928247 
