24
Energy =
C    -0.0085785    2.4140814   -1.2744827 
C    -0.7293556    2.4030353   -0.1299622 
C    -0.5248615    1.4321914    0.7895623 
C     0.9330649    1.4619841   -1.4964494 
C     1.1561087    0.4893011   -0.5676739 
C     0.4125019    0.4740528    0.5738013 
O    -1.6891416    3.3841318    0.0973520 
H    -1.2848048    4.1788072    0.5802052 
H     0.5580786   -0.3049489    1.3182225 
H     1.4952441    1.4748556   -2.4285218 
H    -0.2002296    3.1846256   -2.0137410 
H    -1.1245558    1.4257178    1.6936212 
C     2.1870924   -0.5901086   -0.8212385 
C     1.5995687   -1.7675891   -1.6246973 
H     2.5744641   -0.9784410    0.1480273 
H     3.0697015   -0.1610475   -1.3432233 
C     1.1689766   -1.3636616   -3.0359332 
O    -0.1579844   -1.5265017   -3.4073486 
O     2.0595197   -0.8112795   -3.9586229 
H     3.0057006   -0.7840059   -3.6134437 
N     2.5706838   -2.8774449   -1.6164754 
H     0.6662304   -2.1071638   -1.1136575 
H     2.1360152   -3.7154182   -2.0747225 
H     3.4102571   -2.6317830   -2.1930056 
