24
Energy =
C     0.0794787    2.1611731    0.4325799 
C    -0.3258994    2.7353865   -0.7229250 
C     0.0385714    2.1838875   -1.9114610 
C     0.8465399    1.0417063    0.4125276 
C     1.2183968    0.4889020   -0.7747346 
C     0.8051470    1.0642048   -1.9374138 
O    -1.1167387    3.8871202   -0.6603852 
H    -1.3749388    4.2599253   -1.5676343 
H     1.0870605    0.6318643   -2.8949711 
H     1.1553126    0.5891591    1.3517461 
H    -0.2206420    2.6090861    1.3738003 
H    -0.2831680    2.6359634   -2.8435864 
C     2.0566858   -0.7702037   -0.8062566 
C     1.1911795   -2.0353359   -0.9856806 
H     2.6561192   -0.8645591    0.1270854 
H     2.7926459   -0.6884247   -1.6390581 
C     2.0648353   -3.2356635   -1.3349075 
O     2.8450096   -3.2080555   -2.4830209 
O     2.0880479   -4.3714069   -0.5355971 
H     2.7610814   -4.2305495    0.2030186 
N     0.4021300   -2.2529271    0.2419906 
H     0.5125976   -1.9037767   -1.8608436 
H    -0.3778280   -1.5550717    0.2720220 
H    -0.0672665   -3.1902327    0.1915217 
