24
Energy =
C     2.6751949    1.8812524   -0.7319585 
C     1.6436579    2.7540072   -0.6479425 
C     0.3925562    2.3066844   -0.3990611 
C     2.4665331    0.5506955   -0.5633380 
C     1.2137173    0.0871523   -0.3143697 
C     0.1501393    0.9639519   -0.2736078 
O     1.8747583    4.1175847   -0.8001713 
H     1.8056641    4.3823763   -1.7767180 
H    -0.9931739    0.5009325    0.0895978 
H     3.3070812   -0.1347922   -0.6241525 
H     3.6730488    2.2617097   -0.9219090 
H    -0.4199199    3.0173747   -0.3077499 
C     0.9269711   -1.3918163   -0.1360043 
C    -0.0620766   -1.9200733   -1.2164706 
H     0.4792673   -1.5404140    0.8712380 
H     1.8644454   -1.9892259   -0.1527274 
C    -1.2896036   -1.0247310   -1.3726951 
O    -1.2068833    0.3433532   -1.0377467 
O    -2.4737414   -1.5221552   -1.8892164 
H    -3.1271095   -0.7575389   -1.9943298 
N     0.6395407   -2.0820529   -2.5018100 
H    -0.4619027   -2.9094849   -0.8990369 
H     1.0011546   -1.1522442   -2.8239443 
H     1.4595850   -2.7211909   -2.3858464 
