24
Energy =
C     0.0025644    1.6265516    1.1535318 
C     0.1420287    2.6722170    0.3067550 
C     0.8100032    2.5147872   -0.8588173 
C     0.5371242    0.4187616    0.8401443 
C     1.2133979    0.2525939   -0.3311588 
C     1.3474306    1.3102328   -1.1796334 
O    -0.4090306    3.9079374    0.6306616 
H     0.2569592    4.4732982    1.1457925 
H     1.8840898    1.1991141   -2.1186761 
H     0.4175372   -0.4103108    1.5329393 
H    -0.5430866    1.7651601    2.0807738 
H     0.9062483    3.3600332   -1.5319046 
C     1.8047883   -1.0921915   -0.6955407 
C     0.9881893   -1.8129319   -1.8003895 
H     1.8832497   -1.7554413    0.1965607 
H     2.8525155   -0.9349448   -1.0409944 
C     1.7574425   -2.9851915   -2.3854464 
O     2.7235400   -3.6532239   -1.6419984 
O     1.4778694   -3.4193403   -3.6729843 
H     0.6625523   -4.0140723   -3.6316844 
N    -0.3270985   -2.2636172   -1.2931808 
H     0.8538430   -1.1161477   -2.6616913 
H    -0.5257599   -1.9202153   -0.3249058 
H    -1.0882836   -1.8775359   -1.9007849 
