24
Energy =
C     1.5156168    2.6051284   -0.7685290 
C     0.2972695    2.9695256   -0.3060122 
C    -0.5390008    2.0379599    0.2064491 
C     1.9002014    1.3036912   -0.7264359 
C     1.0629977    0.3599036   -0.2122288 
C    -0.1620055    0.7351496    0.2521362 
O    -0.0926401    4.3040264   -0.3507382 
H    -0.5600678    4.5131761   -1.2262320 
H    -0.8466935   -0.0065476    0.6583345 
H     2.8794976    1.0235690   -1.1059475 
H     2.1789001    3.3648698   -1.1685053 
H    -1.5098161    2.3449384    0.5806237 
C     1.4785571   -1.0968072   -0.1743572 
C     1.0657419   -1.9525852   -1.4195428 
H     1.0717955   -1.5445900    0.7627949 
H     2.5825091   -1.1571015   -0.0473153 
C     0.3243543   -3.2116930   -1.0015071 
O    -0.9455395   -3.1242558   -0.4443332 
O     0.9519449   -4.4493452   -1.0652520 
H     1.5910470   -4.5394328   -0.2896796 
N     0.2904125   -1.1941143   -2.4200246 
H     1.9901200   -2.3262740   -1.9182812 
H    -0.6170604   -0.8690706   -2.0072321 
H     0.8283324   -0.3623040   -2.7563184 
