24
Energy =
C    -0.0510706    2.2238258    0.1314041 
C     0.7306974    2.9577393   -0.6934778 
C     1.6955365    2.3553084   -1.4255226 
C     0.1256963    0.8813922    0.2228522 
C     1.0978323    0.2675708   -0.5084482 
C     1.8792951    1.0134312   -1.3389405 
O     0.5451509    4.3335020   -0.7851855 
H    -0.1408938    4.5530596   -1.4995996 
H     2.6454734    0.5401331   -1.9496572 
H    -0.5167401    0.3029212    0.8812249 
H    -0.8184738    2.7204156    0.7149382 
H     2.3136767    2.9550688   -2.0849735 
C     1.2764310   -1.2338167   -0.4352969 
C     0.3536232   -1.9667377   -1.4353107 
H     1.0618693   -1.5801569    0.5995093 
H     2.3386133   -1.5007745   -0.6406662 
C     0.7108512   -1.6270992   -2.8739200 
O    -0.0575131   -0.7159338   -3.5854686 
O     1.8506232   -2.1574929   -3.4644818 
H     1.6375758   -3.0949545   -3.7725237 
N     0.4117380   -3.4198711   -1.1943580 
H    -0.6976924   -1.6200134   -1.2952490 
H     1.4069442   -3.7505103   -1.2279117 
H     0.0417749   -3.6344428   -0.2384221 
