24
Energy =
C    -1.7935826    0.7677447   -0.3909258 
C    -1.6566685    1.9360784   -1.0577797 
C    -0.4235080    2.4344290   -1.3041677 
C    -0.6956819    0.0887661    0.0274749 
C     0.5514004    0.5804091   -0.2209035 
C     0.6800204    1.7607083   -0.8901909 
O    -2.7847045    2.6293978   -1.4844027 
H    -3.0363381    2.3524993   -2.4273291 
H     1.6639613    2.1697099   -1.1026927 
H    -0.8240531   -0.8560477    0.5499859 
H    -2.7880586    0.3792114   -0.1996474 
H    -0.3302580    3.3759005   -1.8346606 
C     1.7815585   -0.1838249    0.2284250 
C     2.2388842   -1.2638143   -0.7855337 
H     1.5759961   -0.6592971    1.2137607 
H     2.6202709    0.5239734    0.4101698 
C     1.2016189   -2.3806294   -0.9443557 
O     0.1763434   -2.2594726   -1.8749851 
O     1.1903380   -3.4854792   -0.0904102 
H     1.9761654   -3.4969028    0.5399278 
N     2.6167179   -0.6555494   -2.0747854 
H     3.1498100   -1.7525782   -0.3751510 
H     1.7637531   -0.2977433   -2.5694301 
H     3.2634602    0.1540346   -1.9263525 
