24
Energy =
C     1.5902887    2.2695660   -2.0280477 
C     0.8565532    3.0440276   -1.1849564 
C     0.3170751    2.4955871   -0.0726129 
C     1.7846108    0.9551552   -1.7513921 
C     1.2518466    0.4032300   -0.6259832 
C     0.5094505    1.1826440    0.2091634 
O     0.6429782    4.4027382   -1.4376648 
H     1.0553624    4.7327238   -2.3034951 
H     0.0555754    0.7581491    1.1016338 
H     2.3588867    0.3429820   -2.4416294 
H     2.0185214    2.6981155   -2.9278105 
H    -0.2766427    3.1192553    0.5870102 
C     1.4534611   -1.0701059   -0.3242903 
C     0.4276826   -1.9645708   -1.0505411 
H     1.3864964   -1.2476709    0.7726150 
H     2.4808075   -1.3741255   -0.6206113 
C    -1.0075770   -1.6143648   -0.6473708 
O    -2.0091664   -1.4696385   -1.5992284 
O    -1.3503709   -1.5299520    0.6978815 
H    -1.4511746   -2.4627932    1.0696768 
N     0.6672723   -1.8792735   -2.5040823 
H     0.5841818   -3.0152167   -0.7162430 
H     1.5215514   -2.4346186   -2.7432705 
H    -0.1259736   -2.3321823   -3.0210088 
