24
Energy =
C     0.0599242    2.5265054   -1.1976899 
C    -0.6730446    2.4888055   -0.0614637 
C    -0.5043039    1.4612495    0.8134361 
C     0.9654006    1.5520632   -1.4642582 
C     1.1478923    0.5284036   -0.5856555 
C     0.3986696    0.4828812    0.5505677 
O    -1.5913547    3.5153562    0.1819810 
H    -2.1179967    3.4033643    1.0415506 
H     0.5089444   -0.3431593    1.2488449 
H     1.5300370    1.5866755   -2.3920836 
H    -0.0939015    3.3421687   -1.8956822 
H    -1.0956356    1.4157875    1.7217073 
C     2.1338704   -0.5803696   -0.8981424 
C     1.5416386   -1.7552059   -1.7412813 
H     2.5383827   -0.9895468    0.0545113 
H     3.0184810   -0.1370574   -1.4072690 
C     0.0421163   -1.6658228   -1.9943357 
O    -0.4657064   -0.8609865   -3.0108351 
O    -0.8391954   -2.3284212   -1.1483955 
H    -1.7843702   -2.1471263   -1.4609047 
N     2.2947994   -1.9108255   -2.9996170 
H     1.6471263   -2.6978673   -1.1548096 
H     2.1754023   -1.0520745   -3.5904270 
H     3.3159140   -2.0324410   -2.8016328 
