24
Energy =
C     0.2147975    2.2996992   -2.3021802 
C    -0.0979936    3.0047389   -1.1905672 
C     0.2659480    2.5435380    0.0282750 
C     0.9107361    1.1387999   -2.1999358 
C     1.3002370    0.6789451   -0.9779857 
C     0.9614503    1.3832367    0.1385575 
O    -0.8017615    4.2000504   -1.3000770 
H    -0.1669341    4.9852619   -1.3895958 
H     1.2324785    1.0149382    1.1244919 
H     1.1376650    0.5703393   -3.0982104 
H    -0.1071530    2.6659287   -3.2711726 
H    -0.0140693    3.1049500    0.9131375 
C     2.0584904   -0.6297398   -0.8592454 
C     1.1523805   -1.8948534   -0.6621997 
H     2.7601813   -0.5579612    0.0016900 
H     2.7293209   -0.7255832   -1.7387990 
C    -0.3376469   -1.5895064   -0.5299474 
O    -1.0950773   -1.2295362   -1.6386907 
O    -0.9436824   -1.6134920    0.7213516 
H    -1.1467298   -2.5721310    0.9642993 
N     1.3796922   -2.9135306   -1.7124342 
H     1.4325243   -2.3340289    0.3240031 
H     2.1228900   -2.6572036   -2.4009391 
H     1.6689413   -3.8208645   -1.2767727 
