24
Energy =
C    -1.6051597    0.8926081   -0.5290895 
C    -1.4474913    2.2076003   -0.2674737 
C    -0.2170601    2.7599722   -0.3094152 
C    -0.5304555    0.1166661   -0.8243426 
C     0.7269024    0.6609786   -0.8654041 
C     0.8635996    1.9949746   -0.6034962 
O    -2.5538161    2.9945498    0.0382152 
H    -2.7250844    3.0005532    1.0375969 
H     1.8444572    2.4646691   -0.6323180 
H    -0.7286746   -0.9236165   -1.0234489 
H    -2.6028083    0.4672273   -0.5051072 
H    -0.1061317    3.8205434   -0.1104452 
C     2.0089730   -0.1126333   -1.1817436 
C     1.9376798   -1.6382514   -1.5259398 
H     2.6936654    0.0276702   -0.3150163 
H     2.5169369    0.4298696   -2.0126883 
C     2.3950698   -1.9125704   -2.9588473 
O     1.9431014   -1.1120684   -3.9998366 
O     3.1981377   -3.0056737   -3.2583009 
H     4.1619654   -2.7381348   -3.1227486 
N     2.7505384   -2.3756687   -0.5402758 
H     0.9163392   -2.0505268   -1.5048895 
H     2.2917234   -2.2972870    0.3983117 
H     2.7366887   -3.3987559   -0.7747762 
