24
Energy =
C    -0.1026622    0.9681982    1.4574409 
C    -0.6704234    2.0472214    0.8555762 
C    -0.3392933    2.3524779   -0.4193075 
C     0.7934799    0.2036949    0.7831730 
C     1.1314041    0.5125363   -0.4996305 
C     0.5551740    1.5910955   -1.0987808 
O    -1.5953710    2.8569649    1.5219757 
H    -1.8017546    2.5541384    2.4677557 
H     0.8010900    1.8447729   -2.1271271 
H     1.2331005   -0.6610309    1.2762170 
H    -0.3662176    0.7120368    2.4780246 
H    -0.8036185    3.2126860   -0.8891554 
C     2.1197291   -0.3478945   -1.2614597 
C     1.4565288   -1.5417200   -1.9795730 
H     2.8987635   -0.7292635   -0.5620230 
H     2.6576969    0.2680354   -2.0151619 
C     0.8497825   -2.5377406   -0.9994509 
O    -0.4600420   -2.9807364   -1.1409425 
O     1.6237718   -3.0427463    0.0370242 
H     1.0687687   -3.7158135    0.5520117 
N     0.4996025   -1.0465568   -2.9876661 
H     2.2628143   -2.1083381   -2.4987503 
H     0.2007410   -1.8542899   -3.5852462 
H    -0.3774095   -0.7348549   -2.5031650 
