24
Energy =
C     0.3543104    1.2281191    1.4399345 
C     0.0934704    2.3850427    0.7905441 
C     0.4087646    2.5016614   -0.5269089 
C     0.9326870    0.1882579    0.7873264 
C     1.2532648    0.2987727   -0.5318431 
C     0.9839727    1.4635370   -1.1850517 
O    -0.4977448    3.4363060    1.4987079 
H    -0.6753973    4.2621179    0.9377867 
H     1.2211402    1.5680243   -2.2400052 
H     1.1140737   -0.7411590    1.3216139 
H     0.0864857    1.1422473    2.4874524 
H     0.1983194    3.4234036   -1.0583746 
C     1.8946544   -0.8626817   -1.2686262 
C     0.8725790   -1.7858156   -1.9703357 
H     2.5132291   -1.4634700   -0.5645803 
H     2.6041638   -0.4686794   -2.0288601 
C     0.0364108   -2.5787862   -0.9741811 
O     0.1806930   -3.9570498   -0.8995028 
O    -0.8776175   -1.9565708   -0.1358297 
H    -1.7625443   -1.9057847   -0.6177878 
N     0.0395003   -1.0074894   -2.9053779 
H     1.4496680   -2.5476879   -2.5456997 
H     0.6507949   -0.6102454   -3.6569924 
H    -0.6254842   -1.6550519   -3.3923179 
