24
Energy =
C     0.8535211    2.7974725   -1.0288382 
C     0.0477594    2.9303365    0.0589709 
C    -0.2024054    1.8557574    0.8410650 
C     1.4052763    1.5934314   -1.3267098 
C     1.1607902    0.5140353   -0.5343824 
C     0.3467977    0.6496865    0.5485403 
O    -0.5379870    4.1552938    0.3927151 
H    -0.2992408    4.9125040   -0.2384180 
H     0.1253109   -0.2095539    1.1787657 
H     2.0408718    1.4994219   -2.2038568 
H     1.0559635    3.6531175   -1.6641904 
H    -0.8515434    1.9745683    1.7019281 
C     1.7538371   -0.8357413   -0.8724894 
C     0.9082384   -1.7886556   -1.7932717 
H     2.0062841   -1.3462747    0.0871010 
H     2.7481348   -0.6779956   -1.3475522 
C     0.7705511   -3.1623671   -1.1595825 
O     1.3032712   -4.2808714   -1.7866905 
O     0.1228125   -3.3131606    0.0591795 
H    -0.8637267   -3.4112348   -0.1315843 
N    -0.4285510   -1.2819103   -2.1949250 
H     1.5134267   -1.9705719   -2.7138855 
H    -0.6851910   -0.3382595   -1.8356997 
H    -0.4867621   -1.2239260   -3.2393613 
