24
Energy =
C     1.1828597    2.5572018   -0.5220984 
C    -0.0512099    2.6807467    0.0185040 
C    -0.7269435    1.5804916    0.4213195 
C     1.7515151    1.3311165   -0.6516602 
C     1.0836627    0.2195764   -0.2330742 
C    -0.1646129    0.3512678    0.2960483 
O    -0.6308132    3.9386769    0.1490155 
H    -0.4003785    4.3479787    1.0476940 
H    -0.7233186   -0.5283400    0.6064419 
H     2.7404970    1.2474106   -1.0958000 
H     1.7060052    3.4469401   -0.8561732 
H    -1.7238016    1.6930168    0.8338210 
C     1.7040040   -1.1509788   -0.3959288 
C     1.2395713   -1.8301851   -1.6989847 
H     1.4461400   -1.7958776    0.4741529 
H     2.8146367   -1.0636281   -0.3881590 
C     2.1161042   -3.0275777   -2.0270249 
O     2.3090310   -4.0336427   -1.0901226 
O     2.7196181   -3.1328788   -3.2713824 
H     2.0385239   -3.4620981   -3.9399252 
N    -0.1835378   -2.1991229   -1.5730999 
H     1.3712184   -1.1127070   -2.5440876 
H    -0.5424661   -2.5116535   -2.5064819 
H    -0.2776094   -3.0234704   -0.9291391 
