24
Energy =
C     0.6214297    1.5933811    1.4083108 
C     0.1446439    2.6115378    0.6557221 
C     0.2482573    2.5631159   -0.6923370 
C     1.1973832    0.5176076    0.8137116 
C     1.3038394    0.4610642   -0.5430260 
C     0.8229704    1.4904295   -1.2942509 
O    -0.4462157    3.7121727    1.2683433 
H    -1.4448514    3.5714074    1.3734984 
H     0.9002520    1.4636615   -2.3783630 
H     1.5727902   -0.2961626    1.4295421 
H     0.5410724    1.6494710    2.4885934 
H    -0.1282970    3.3921175   -1.2818897 
C     1.9326334   -0.7399055   -1.2133005 
C     0.8737119   -1.7314156   -1.7481853 
H     2.6106799   -1.2740572   -0.5089801 
H     2.5865505   -0.3892189   -2.0449419 
C     1.4857720   -2.7188271   -2.7326688 
O     0.7081618   -3.2357131   -3.7608229 
O     2.7954242   -3.1594812   -2.5872861 
H     2.7992005   -3.9389920   -1.9449891 
N     0.2463455   -2.4324585   -0.6135222 
H     0.1013104   -1.1744416   -2.3295524 
H    -0.3084528   -1.7458317   -0.0504787 
H    -0.4528633   -3.1232727   -0.9792521 
