24
Energy =
C     1.4355942    2.4757851   -1.2144301 
C     0.4252023    2.8762738   -0.4093629 
C    -0.2128025    1.9643742    0.3723764 
C     1.8166593    1.1734799   -1.2442207 
C     1.1861130    0.2588627   -0.4574553 
C     0.1636199    0.6607049    0.3459872 
O     0.0611718    4.2266186   -0.4071764 
H    -0.7043387    4.4474220    0.2203430 
H    -0.3595889   -0.0580796    0.9718230 
H     2.6245006    0.8693317   -1.9075126 
H     1.9326784    3.2117345   -1.8376366 
H    -1.0268993    2.2753485    1.0182661 
C     1.5867904   -1.1984609   -0.5096163 
C     0.7054901   -1.9980694   -1.4977033 
H     1.5058769   -1.6384232    0.5091409 
H     2.6587050   -1.2948837   -0.8013895 
C     0.8276939   -1.4741026   -2.9218700 
O     2.0551357   -1.4945493   -3.5746427 
O    -0.2607612   -0.8767762   -3.5446806 
H    -0.3439434    0.0741362   -3.2161592 
N     1.0507179   -3.4280725   -1.4229334 
H    -0.3685565   -1.8769517   -1.2245723 
H     2.0531102   -3.5710265   -1.6985150 
H     0.9345639   -3.7796773   -0.4434762 
