24
Energy =
C     1.3831973    2.5260366   -0.9944960 
C     0.1759298    2.8832856   -0.4994340 
C    -0.6162421    1.9567996    0.0873817 
C     1.8007644    1.2374404   -0.9096752 
C     1.0096333    0.2992149   -0.3180321 
C    -0.2060803    0.6659355    0.1756378 
O    -0.2492418    4.2050804   -0.5882913 
H    -0.7830659    4.3533220   -1.4379786 
H    -0.8558257   -0.0697614    0.6429920 
H     2.7686228    0.9629285   -1.3250387 
H     2.0098526    3.2789547   -1.4608215 
H    -1.5784128    2.2594341    0.4859613 
C     1.4584483   -1.1441425   -0.2472784 
C     0.9419756   -1.9627563   -1.4440554 
H     1.0905805   -1.6075276    0.6953318 
H     2.5699026   -1.2043798   -0.2009055 
C     1.5434401   -1.4743832   -2.7670584 
O     2.9254139   -1.4060975   -2.9031859 
O     0.7446822   -1.1029181   -3.8491036 
H    -0.2399313   -1.2047542   -3.6558245 
N     1.2367003   -3.3826280   -1.1910405 
H    -0.1634006   -1.8392183   -1.4939782 
H     0.7957224   -3.9639338   -1.9437836 
H     2.2714049   -3.5460824   -1.2665961 
