24
Energy =
C    -0.7180438    1.9003442   -0.0970128 
C     0.1441155    2.8476643    0.3279820 
C     1.4789500    2.6446466    0.1961749 
C    -0.2635921    0.7485006   -0.6535243 
C     1.0817568    0.5295998   -0.7920936 
C     1.9424580    1.4974270   -0.3585168 
O    -0.3680278    4.0189493    0.8957989 
H     0.3420292    4.6814864    1.1883887 
H     3.0178566    1.3604867   -0.4520510 
H    -1.0123439    0.0399588   -0.9684022 
H    -1.7826960    2.0766796    0.0142646 
H     2.1805722    3.3998363    0.5342961 
C     1.7095243   -0.7249775   -1.4050355 
C     0.8007542   -1.8979634   -1.8962736 
H     2.4214509   -1.1285878   -0.6505766 
H     2.3632144   -0.3887935   -2.2432025 
C     1.0014678   -2.1750924   -3.3812583 
O    -0.0839429   -2.1776160   -4.2476394 
O     2.2706296   -2.4321451   -3.8839316 
H     2.1922691   -2.6060541   -4.8785248 
N     1.0809557   -3.0923241   -1.0769895 
H    -0.2752823   -1.6766175   -1.8110839 
H     0.3910343   -3.8429732   -1.3210358 
H     2.0242128   -3.4741761   -1.3366534 
