24
Energy =
C    -0.9526025    1.8883330   -0.8209082 
C    -0.2001218    2.9975374   -0.9801460 
C     1.1549913    2.9019879   -0.9637276 
C    -0.3691216    0.6597810   -0.6721147 
C     1.0150520    0.5728161   -0.6232106 
C     1.7575552    1.7009893   -0.7825345 
O    -0.8451305    4.2282460   -1.1427125 
H    -0.2142830    5.0116078   -1.2737274 
H     2.8436706    1.6487023   -0.7709004 
H    -1.1003680   -0.3488264   -0.3516620 
H    -2.0314772    1.9835090   -0.8142660 
H     1.7631828    3.7913498   -1.0901537 
C     1.7329043   -0.7727403   -0.4708448 
C     0.8442315   -2.0424286   -0.5912154 
H     2.2657870   -0.7966666    0.5037983 
H     2.5105593   -0.8280014   -1.2648751 
C    -0.2691558   -1.8271090   -1.6022410 
O    -1.0423461   -0.6589917   -1.4670455 
O    -0.4837104   -2.6760863   -2.6732684 
H    -1.2335967   -2.2988553   -3.2387609 
N     1.6980373   -3.1985053   -0.9089724 
H     0.3394674   -2.2173970    0.3863662 
H     1.1071568   -4.0630320   -0.8647686 
H     1.9902017   -3.1346638   -1.9151210 
