24
Energy =
C    -1.2495631    1.2346258   -0.2380696 
C    -0.8430990    2.5103947   -0.0667407 
C     0.4409058    2.8467381   -0.3087486 
C    -0.3712414    0.2816889   -0.6437474 
C     0.9393510    0.6044682   -0.8872495 
C     1.3272259    1.9036332   -0.7140065 
O    -1.7496434    3.4797402    0.3503460 
H    -1.7733856    3.5387804    1.3624613 
H     2.3565844    2.2004964   -0.9042310 
H    -0.7661354   -0.7136771   -0.7609564 
H    -2.2887300    0.9838063   -0.0524427 
H     0.7514878    3.8783664   -0.1801786 
C     2.0207468   -0.3788758   -1.3468686 
C     1.6594207   -1.8933118   -1.5931041 
H     2.8565782   -0.2898849   -0.6225132 
H     2.4548380    0.0493886   -2.2794432 
C     1.7932022   -2.2889487   -3.0603030 
O     2.8028490   -1.7684407   -3.8619321 
O     0.9451065   -3.2485517   -3.5962080 
H     1.2756248   -4.1555536   -3.3009653 
N     2.4767474   -2.8018330   -0.7545483 
H     0.5982438   -2.1012077   -1.3850527 
H     3.1165390   -2.3103603   -0.0897989 
H     1.8544064   -3.4048471   -0.1657062 
