24
Energy =
C     0.0866548    2.0494460    0.5141511 
C     0.4388195    2.8902096   -0.4855920 
C     1.2389435    2.4551080   -1.4855924 
C     0.5287696    0.7659568    0.5136196 
C     1.3366337    0.3212730   -0.4887822 
C     1.6859631    1.1735138   -1.4926977 
O    -0.0177075    4.2044953   -0.4825004 
H    -0.9008820    4.2761843   -0.9760691 
H     2.3189340    0.8336047   -2.3097713 
H     0.2321855    0.0996920    1.3196565 
H    -0.5507590    2.4135957    1.3126817 
H     1.5158566    3.1412100   -2.2786140 
C     1.8083253   -1.1164850   -0.5046995 
C     0.7633653   -2.0565223   -1.1538340 
H     2.0115111   -1.4444291    0.5385670 
H     2.7724925   -1.2049409   -1.0581993 
C     0.5337058   -1.7251281   -2.6202131 
O    -0.7609261   -1.6517208   -3.1225894 
O     1.6042883   -1.4838326   -3.4760286 
H     1.2388344   -1.3448860   -4.4088465 
N     1.1701741   -3.4704467   -1.0021934 
H    -0.2220407   -1.8910552   -0.6564333 
H     2.0606425   -3.5869707   -0.4638327 
H     0.4265553   -4.0018122   -0.4909900 
