24
Energy =
C    -0.2721487    2.2201400   -0.1490674 
C     0.6478527    3.0028314   -0.7731758 
C     1.8018178    2.4542573   -1.2172629 
C    -0.0307896    0.8962607    0.0306060 
C     1.1320216    0.3441570   -0.4117843 
C     2.0469668    1.1304520   -1.0425942 
O     0.4326323    4.3696594   -0.9736143 
H    -0.4548510    4.7099459   -0.6205070 
H     2.9776722    0.7083466   -1.4125827 
H    -0.7783506    0.2646414    0.5077663 
H    -1.2035963    2.6516951    0.1997581 
H     2.5263120    3.0887321   -1.7174380 
C     1.3860245   -1.1366806   -0.2125904 
C     0.5561639   -2.0795505   -1.1405803 
H     1.1914097   -1.3647920    0.8613301 
H     2.4667906   -1.3611461   -0.3508668 
C    -0.1167177   -3.1740508   -0.3244947 
O     0.1446516   -4.5096248   -0.5967732 
O    -1.0041478   -2.8492514    0.6934412 
H    -1.9126868   -2.7079081    0.2766798 
N    -0.4274239   -1.3311068   -1.9520836 
H     1.2628539   -2.6104060   -1.8229970 
H     0.0864113   -0.7428373   -2.6517152 
H    -0.9855301   -2.0085884   -2.5267259 
