24
Energy =
C    -1.1484487    1.4564969    0.4382285 
C    -0.5396496    2.6411885    0.2022516 
C     0.7499231    2.6706628   -0.2058743 
C    -0.4706996    0.2941431    0.2592321 
C     0.8277202    0.3152835   -0.1538936 
C     1.4346998    1.5125256   -0.3873647 
O    -1.2378806    3.8301308    0.3865026 
H    -1.7031782    4.1099399   -0.4701413 
H     2.4685468    1.5494593   -0.7212525 
H    -0.9729183   -0.6525900    0.4445751 
H    -2.1802356    1.4486932    0.7731293 
H     1.2272287    3.6287254   -0.3822064 
C     1.5822591   -0.9823954   -0.3658206 
C     1.4608164   -1.6237821   -1.7936636 
H     1.2613279   -1.6970212    0.4262550 
H     2.6594699   -0.8137533   -0.1433190 
C     0.9860415   -3.0848311   -1.7502130 
O     1.3002967   -3.8779039   -0.6525244 
O     0.3342234   -3.6849452   -2.8262498 
H     0.2185933   -3.0321870   -3.5871175 
N     0.6544035   -0.8018911   -2.7214452 
H     2.4893963   -1.7025405   -2.2157307 
H    -0.3201219   -0.6810431   -2.3550730 
H     1.0835020    0.1474282   -2.8354233 
