24
Energy =
C     1.0875619    2.7006697   -0.2635568 
C    -0.2258448    2.7579839    0.0578754 
C    -0.9226896    1.6177059    0.2667316 
C     1.7094130    1.4994035   -0.3835734 
C     1.0144994    0.3469868   -0.1717592 
C    -0.3074287    0.4131752    0.1505521 
O    -0.8592897    3.9901678    0.1787046 
H    -1.2462277    4.2829110   -0.7118282 
H    -0.8753577   -0.5050110    0.2944684 
H     2.7631090    1.4686737   -0.6480369 
H     1.6345750    3.6242139   -0.4212199 
H    -1.9748356    1.6794160    0.5240995 
C     1.6892149   -1.0032000   -0.3084834 
C     1.3422959   -1.7809526   -1.6188353 
H     1.4266187   -1.5973125    0.5961408 
H     2.7934791   -0.8842708   -0.2442708 
C     0.9693811   -3.2395000   -1.3180510 
O     0.1119905   -3.5330622   -0.2620228 
O     1.4399306   -4.2913958   -2.1061341 
H     1.9941486   -3.9685036   -2.8846440 
N     0.2803158   -1.1046759   -2.3900226 
H     2.2664561   -1.8032449   -2.2407126 
H     0.6712763   -0.2301848   -2.8148511 
H    -0.0060543   -1.7074055   -3.1991008 
