24
Energy =
C     0.5112637    2.4996666   -1.2487131 
C     0.0545218    2.7547695    0.0063210 
C     0.2059381    1.8231037    0.9746502 
C     1.1140395    1.3162062   -1.5278231 
C     1.2648106    0.3761202   -0.5541880 
C     0.8078198    0.6377395    0.7014667 
O    -0.5724198    3.9630695    0.3273751 
H    -0.6444597    4.6106032   -0.4499559 
H     0.9208563   -0.0952970    1.4960736 
H     1.4771753    1.1281914   -2.5353927 
H     0.3961853    3.2417604   -2.0314028 
H    -0.1608586    2.0403628    1.9719613 
C     1.9303759   -0.9455387   -0.8719473 
C     1.0111704   -1.8795321   -1.7003595 
H     2.2491275   -1.4734942    0.0567391 
H     2.8687271   -0.7409987   -1.4364998 
C     1.7975666   -3.0468654   -2.2655247 
O     2.6029648   -3.8301402   -1.4447103 
O     1.7473084   -3.3209804   -3.6263504 
H     2.3132000   -4.1398168   -3.8092310 
N    -0.1315673   -2.3665233   -0.8964697 
H     0.6451422   -1.3284303   -2.5990423 
H    -0.1727187   -1.9336591    0.0545800 
H    -1.0298615   -2.1241642   -1.3769416 
