24
Energy =
C    -0.6743463    2.0818467   -0.1110538 
C     0.2004972    2.9565478   -0.6752064 
C     1.4325650    2.5309883   -1.0365160 
C    -0.3123134    0.7898131    0.0896823 
C     0.9293791    0.3609938   -0.2702700 
C     1.8001566    1.2393012   -0.8391132 
O    -0.1400932    4.2945052   -0.8967195 
H    -1.0798340    4.5367534   -0.6011652 
H     2.7923906    0.9145224   -1.1415613 
H    -1.0247598    0.0972151    0.5336038 
H    -1.6660478    2.4121550    0.1784793 
H     2.1191315    3.2393408   -1.4877986 
C     1.3260201   -1.0861763   -0.0603007 
C     0.9519753   -2.0682570   -1.2217947 
H     0.8777628   -1.4297187    0.9018104 
H     2.4228378   -1.1438449    0.1179400 
C     0.1837513   -3.2675074   -0.7006204 
O    -1.0694682   -3.1060932   -0.1189094 
O     0.7567227   -4.5311188   -0.7378405 
H     0.0938484   -5.1948374   -0.3577057 
N     0.2254654   -1.4181384   -2.3303994 
H     1.8898735   -2.5095593   -1.6330799 
H    -0.6937399   -1.0453994   -1.9907414 
H     0.7840996   -0.6285143   -2.7289797 
