24
Energy =
C    -0.6106855    1.8500276    0.1532436 
C     0.2579939    2.8419847   -0.1483381 
C     1.5313890    2.5447581   -0.4952729 
C    -0.2086860    0.5542020    0.1047655 
C     1.0726853    0.2464138   -0.2389827 
C     1.9401992    1.2510019   -0.5473883 
O    -0.1572439    4.1685505   -0.0968924 
H    -0.5231408    4.4643917   -0.9953461 
H     2.9641357    1.0272244   -0.8365957 
H    -0.9177827   -0.2380957    0.3313198 
H    -1.6281979    2.1034394    0.4312771 
H     2.2178806    3.3514612   -0.7294104 
C     1.5158233   -1.1989070   -0.3148529 
C     1.1063344   -1.8407089   -1.6572776 
H     1.0769550   -1.7667760    0.5346445 
H     2.6213026   -1.2586283   -0.1856358 
C     1.9090696   -3.1066989   -1.9578493 
O     2.6529580   -3.1716745   -3.1280638 
O     1.9241780   -4.1993858   -1.0911428 
H     1.3567594   -4.0428048   -0.2737135 
N    -0.3516818   -2.0722578   -1.6642537 
H     1.3674485   -1.1299522   -2.4793011 
H    -0.6504458   -2.3321154   -2.6359649 
H    -0.5971372   -2.8889236   -1.0554690 
