24
Energy =
C    -0.6223185    2.1524736   -0.5976705 
C    -0.0136357    2.6231200    0.5127079 
C     1.1393950    2.0462776    0.9403216 
C    -0.0931473    1.1071522   -1.2835814 
C     1.0493560    0.5036215   -0.8493218 
C     1.6727229    1.0008447    0.2592798 
O    -0.5885950    3.7040591    1.1887228 
H    -0.0812091    3.9894668    2.0192830 
H     2.6024927    0.5639637    0.6153104 
H    -0.5946111    0.7702047   -2.1824535 
H    -1.5375752    2.6289330   -0.9330800 
H     1.6409608    2.4232974    1.8253330 
C     1.6872516   -0.6464116   -1.6226003 
C     0.8011688   -1.8983651   -1.8916295 
H     2.6171170   -0.9889266   -1.1152319 
H     2.0217829   -0.2382215   -2.6015361 
C     0.3583266   -2.7439964   -0.6809599 
O    -0.2215484   -3.9799094   -0.9396613 
O     0.5657504   -2.4001524    0.6546835 
H     0.8989251   -1.4663559    0.7745515 
N    -0.3262081   -1.5328492   -2.7702822 
H     1.4507468   -2.6171613   -2.4478468 
H     0.0388640   -1.3156611   -3.7284207 
H    -0.9610789   -2.3612079   -2.8941143 
