24
Energy =
C     0.4980081    1.9528712    0.7240066 
C     1.5798137    2.5922974    0.2231715 
C     2.4414075    1.9339771   -0.5857653 
C     0.2704429    0.6517794    0.4125059 
C     1.1352042   -0.0193642   -0.3991704 
C     2.2208725    0.6326015   -0.9020904 
O     1.8093206    3.9258457    0.5452094 
H     1.3500326    4.5385398   -0.1201178 
H     2.9145248    0.1206148   -1.5662187 
H    -0.6075640    0.1527433    0.8144537 
H    -0.1820430    2.4916673    1.3749511 
H     3.3060157    2.4583897   -0.9788380 
C     0.8691986   -1.4618476   -0.7724763 
C    -0.0848271   -1.5769165   -1.9742441 
H     0.4257755   -1.9992538    0.0946489 
H     1.8234559   -1.9870647   -1.0044044 
C     0.5204795   -0.9790065   -3.2360770 
O     1.7495458   -1.4250174   -3.7099896 
O    -0.1508400    0.0195969   -3.9264811 
H     0.4003894    0.2792955   -4.7344517 
N    -0.4455406   -2.9946291   -2.1463628 
H    -1.0098802   -0.9923159   -1.7589803 
H    -1.1856716   -3.0650409   -2.8856482 
H     0.3835297   -3.5203253   -2.5184501 
