24
Energy =
C    -1.0010700    1.6286611    0.1800823 
C    -0.4476061    2.6693081   -0.4837386 
C     0.7746015    2.5389036   -1.0491018 
C    -0.3359874    0.4495720    0.2754350 
C     0.8953302    0.3100789   -0.2915646 
C     1.4460311    1.3623779   -0.9588925 
O    -1.1325109    3.8764465   -0.5792271 
H    -1.7130223    3.8953621   -1.4104750 
H     2.4269455    1.2702208   -1.4197545 
H    -0.7963993   -0.3807496    0.8052506 
H    -1.9781552    1.7488748    0.6354723 
H     1.2098057    3.3853914   -1.5696488 
C     1.6380952   -1.0053328   -0.2030605 
C     1.4654531   -1.8559041   -1.4811324 
H     1.2901793   -1.5932669    0.6757746 
H     2.7165402   -0.7916033   -0.0211542 
C     2.4766119   -2.9994131   -1.5114103 
O     3.8122312   -2.7527555   -1.2235387 
O     2.1024644   -4.2799518   -1.8951971 
H     1.7407999   -4.7593982   -1.0840425 
N     0.0720332   -2.3393192   -1.5460202 
H     1.7005545   -1.2374683   -2.3787567 
H    -0.5571701   -1.5349041   -1.7759744 
H    -0.0268362   -3.0018597   -2.3547477 
