24
Energy =
C     0.6365063    2.6112091   -1.0294381 
C     0.0359172    2.7381111    0.1760166 
C     0.0218093    1.6963217    1.0391405 
C     1.2246812    1.4386975   -1.3768872 
C     1.2197935    0.3865732   -0.5111654 
C     0.6063260    0.5195128    0.6978231 
O    -0.5649049    3.9415033    0.5296782 
H    -1.5363416    3.9541717    0.2378568 
H     0.5719380   -0.3146041    1.3940444 
H     1.6782652    1.3341271   -2.3603293 
H     0.6356838    3.4523859   -1.7142631 
H    -0.4650161    1.8122982    2.0016917 
C     1.8502790   -0.9319887   -0.9142613 
C     0.9594487   -1.8308939   -1.8223465 
H     2.1349923   -1.5063615   -0.0050755 
H     2.8154338   -0.7138818   -1.4247122 
C    -0.4317913   -1.2618053   -2.1053313 
O    -1.5073960   -1.6390259   -1.3091454 
O    -0.6394835   -0.3319560   -3.1181917 
H    -1.6208879   -0.0891715   -3.1335806 
N     1.7014383   -2.1338664   -3.0612877 
H     0.7647000   -2.7847206   -1.2781243 
H     2.4614506   -2.8209532   -2.8452882 
H     1.0643324   -2.6056356   -3.7477445 
