24
Energy =
C    -0.4055626    2.0956617   -0.9158560 
C     0.5346249    2.9750055   -0.5061939 
C     1.7425602    2.5300689   -0.0968965 
C    -0.1445115    0.7637296   -0.9127811 
C     1.0774409    0.2991101   -0.5094795 
C     2.0132952    1.2003157   -0.0900160 
O     0.2607509    4.3389416   -0.5111110 
H    -0.1382276    4.6287659    0.3750648 
H     2.9899423    0.8650823    0.2524289 
H    -0.9267183    0.0943714   -1.2464971 
H    -1.3685914    2.4682976   -1.2484246 
H     2.4899676    3.2483094    0.2236041 
C     1.4209476   -1.1864855   -0.4465979 
C     0.6539740   -2.1099425   -1.4368465 
H     1.2644667   -1.5528733    0.5927065 
H     2.5152908   -1.2876561   -0.6343279 
C     1.5405285   -3.2350265   -1.9539815 
O     2.5359048   -3.7875858   -1.1565365 
O     1.3340575   -3.7499416   -3.2265053 
H     0.5364634   -4.3680210   -3.2003916 
N    -0.5411570   -2.6676998   -0.7731104 
H     0.3697684   -1.5373864   -2.3505163 
H    -1.0973553   -1.9204074   -0.2984714 
H    -1.1705594   -3.0972394   -1.4924870 
