24
Energy =
C    -0.8091920    2.0166137   -0.5851267 
C     0.0664540    3.0398938   -0.4857101 
C     1.3920109    2.7936376   -0.3956378 
C    -0.3661976    0.7215960   -0.6179330 
C     0.9936274    0.4712507   -0.4862492 
C     1.8560340    1.5193658   -0.3895510 
O    -0.3971581    4.3522301   -0.4664600 
H    -0.5857759    4.6534573    0.4830366 
H     2.9264462    1.3445884   -0.3142354 
H    -1.2214091   -0.2365101   -0.5364496 
H    -1.8696802    2.2294297   -0.6442783 
H     2.0794502    3.6300120   -0.3272545 
C     1.5598076   -0.9523896   -0.5252314 
C     0.5657039   -2.0750246   -0.9360585 
H     1.9956514   -1.2007016    0.4660532 
H     2.3977133   -0.9567513   -1.2572904 
C    -0.4264932   -1.5666072   -1.9678998 
O    -1.0909465   -0.3599963   -1.6819689 
O    -0.6297214   -2.1939467   -3.1838761 
H    -1.2827992   -1.6391906   -3.7232025 
N     1.3264767   -3.2487749   -1.3962514 
H    -0.0420414   -2.3549062   -0.0455387 
H     0.6484940   -4.0286053   -1.5723559 
H     1.7266788   -3.0373985   -2.3432312 
