24
Energy =
C     0.8624674    0.4683014    1.7400153 
C     0.8040980    1.8118245    1.5425316 
C     1.0160152    2.3151862    0.3055616 
C     1.1295576   -0.3622592    0.7011266 
C     1.3351750    0.1417487   -0.5486113 
C     1.2820528    1.4890537   -0.7383790 
O     0.5303950    2.6963765    2.5903311 
H     0.3826233    2.2438674    3.4862325 
H     1.4606963    1.9184162   -1.7198203 
H     1.1735362   -1.4355348    0.8763480 
H     0.6964437    0.0544010    2.7288910 
H     0.9719887    3.3899669    0.1644944 
C     1.6236694   -0.7914665   -1.7086617 
C     0.3466573   -1.3523988   -2.3903617 
H     2.2387577   -1.6454534   -1.3423971 
H     2.2577723   -0.2818491   -2.4680550 
C    -0.5711775   -2.0732647   -1.4045733 
O    -0.1827374   -3.2999409   -0.8837390 
O    -1.7509021   -1.4944999   -0.9493961 
H    -1.5356744   -0.8423349   -0.2100971 
N    -0.3333598   -0.3268492   -3.2203057 
H     0.6770419   -2.1633295   -3.0793503 
H    -1.3198531   -0.1603520   -2.9045323 
H     0.1457165    0.6003515   -3.1880888 
