24
Energy =
C    -0.9949883    1.1235818   -0.1386102 
C    -0.8126880    1.0330754    1.2053276 
C     0.3929032    0.6669711    1.6950377 
C     0.0366834    0.8748129   -1.0028045 
C     1.2390143    0.4618390   -0.4860785 
C     1.4148380    0.3649103    0.8570900 
O    -1.8477024    1.3035801    2.1066490 
H    -2.7115073    1.6036064    1.6681930 
H     2.3588171    0.0177855    1.2687115 
H    -0.1436373    1.0214565   -2.6783874 
H    -1.9567177    1.4245538   -0.5335136 
H     0.5205739    0.5924493    2.7700057 
C     2.2505499   -0.0938686   -1.4569586 
C     1.5563229   -1.1687171   -2.3185511 
H     3.1289030   -0.5382832   -0.9386282 
H     2.6238747    0.7416167   -2.0920165 
C     0.1855338   -0.6410773   -2.7036958 
O    -0.7766286   -1.4615697   -3.2717351 
O    -0.4089199    2.5248711   -2.2842796 
H    -1.3204733    2.8163650   -2.6428581 
N     2.3919107   -1.4754667   -3.4885549 
H     1.3927329   -2.0910739   -1.7092929 
H     1.9276064   -2.2314157   -4.0503744 
H     2.4547921   -0.6388206   -4.1172993 
