24
Energy =
C    -0.4883306    2.0142674   -0.2849481 
C     0.4538787    2.9247551   -0.6171921 
C     1.7307373    2.5339369   -0.8401464 
C    -0.1692094    0.6840231   -0.2132896 
C     1.1419216    0.3007716   -0.3987727 
C     2.0797450    1.2268474   -0.7298318 
O     0.1142204    4.2707501   -0.7123735 
H    -0.1574151    4.5036769   -1.6617194 
H     3.1105673    0.9311395   -0.9055047 
H    -0.9952157   -0.2043981    0.2144218 
H    -1.5014446    2.3427096   -0.0873841 
H     2.4733823    3.2821181   -1.0957969 
C     1.4761094   -1.1738057   -0.2768379 
C     0.6673120   -2.0406239   -1.2755239 
H     1.2505736   -1.5018546    0.7610914 
H     2.5614912   -1.3538256   -0.4415126 
C    -0.8274240   -1.6866468   -1.3067460 
O    -1.2408364   -0.4050903   -0.8962032 
O    -1.7773048   -2.5557585   -1.8288623 
H    -1.3664669   -3.4242215   -2.1376231 
N     1.2840578   -1.9139328   -2.6047562 
H     0.7449916   -3.1008751   -0.9432968 
H     0.8011481   -2.5634162   -3.2693715 
H     1.1018898   -0.9466125   -2.9692570 
