24
Energy =
C    -0.0148290    1.2878514    1.3345495 
C     0.4765643    2.4408192    0.8250533 
C     1.3299099    2.4078845   -0.2241063 
C     0.3523327    0.0949645    0.8007798 
C     1.2178980    0.0535599   -0.2505769 
C     1.7023084    1.2190330   -0.7631884 
O     0.0955231    3.6613460    1.3731699 
H     0.7276143    3.9331636    2.1182880 
H     2.3870242    1.2069587   -1.6080886 
H    -0.0543025   -0.8224591    1.2184171 
H    -0.7076358    1.3302039    2.1682509 
H     1.7062572    3.3408383   -0.6301804 
C     1.6181634   -1.2696283   -0.8636248 
C     0.8690901   -1.5530186   -2.1871659 
H     1.4512995   -2.1079449   -0.1496638 
H     2.7168077   -1.2563342   -1.0540911 
C     1.4642721   -2.7645973   -2.8790296 
O     2.4836728   -2.5966617   -3.8050439 
O     1.0730231   -4.0489264   -2.5267118 
H     0.2266923   -4.2690112   -3.0313487 
N    -0.5761688   -1.7254906   -1.9473780 
H     1.0268036   -0.7074097   -2.8976767 
H    -0.7313791   -2.4469182   -1.2021706 
H    -0.9897942   -0.8253825   -1.6078830 
