24
Energy =
C     0.3751573    2.3321996   -1.7588695 
C     0.0122309    2.8539679   -0.5569017 
C     0.2761524    2.1662201    0.5770773 
C     0.9981289    1.1281083   -1.8196728 
C     1.2631878    0.4335537   -0.6785187 
C     0.8988933    0.9615179    0.5227122 
O    -0.6304433    4.0923972   -0.4584396 
H    -0.7968349    4.5434586   -1.3515499 
H     1.1010932    0.4275834    1.4473246 
H     1.2835980    0.7247472   -2.7883768 
H     0.1682562    2.8766333   -2.6738916 
H    -0.0185052    2.5942163    1.5290347 
C     1.9531886   -0.9119712   -0.7522400 
C     1.0131853   -2.0269676   -1.2744081 
H     2.3639828   -1.2137124    0.2382090 
H     2.8341337   -0.8170571   -1.4277159 
C     1.8209503   -3.2670895   -1.6266830 
O     2.1110553   -3.5560069   -2.9538686 
O     2.3326624   -4.0840078   -0.6264769 
H     2.8499118   -4.8387106   -1.0600508 
N    -0.0861921   -2.3074322   -0.3166073 
H     0.5596660   -1.7012108   -2.2386270 
H    -0.0545822   -3.3033174    0.0140096 
H    -0.0167510   -1.7272666    0.5500527 
