24
Energy =
C     0.1592369    1.9737853    0.6986545 
C    -0.4511409    2.6655551   -0.2905927 
C    -0.2371119    2.3146407   -1.5870809 
C     0.9872922    0.9399550    0.4049853 
C     1.2151987    0.5927397   -0.8917037 
C     0.5893433    1.2805556   -1.8864344 
O    -1.2907220    3.7305881    0.0513904 
H    -1.7379922    4.1763856   -0.7422915 
H     0.7388963    0.9999013   -2.9261070 
H     1.4533915    0.3832231    1.2141741 
H    -0.0303783    2.2529042    1.7295089 
H    -0.7307987    2.8566422   -2.3865935 
C     2.1134583   -0.5836551   -1.2220807 
C     1.3939649   -1.9664964   -1.2508080 
H     2.9458697   -0.6244346   -0.4845433 
H     2.6140845   -0.3908436   -2.1980444 
C    -0.0894045   -1.9153508   -0.8611101 
O    -0.4406377   -2.0789739    0.4737352 
O    -1.0921068   -1.6329057   -1.7886643 
H    -0.7060531   -1.5563352   -2.7180138 
N     1.6021375   -2.5886350   -2.5716564 
H     1.8642782   -2.6155954   -0.4745169 
H     2.6222081   -2.7985694   -2.6955518 
H     1.1247338   -3.5218809   -2.5857703 
