24
Energy =
C    -1.1904641    0.9846126    0.3078241 
C    -0.6722208    1.8182537    1.2351132 
C     0.6611633    2.0252475    1.2857663 
C    -0.3760092    0.3443748   -0.5694803 
C     0.9786736    0.5306157   -0.5201601 
C     1.4835265    1.3892369    0.4137989 
O    -1.5124707    2.4720488    2.1307593 
H    -1.6322781    1.9220848    2.9744203 
H     2.5531447    1.5768079    0.4702020 
H    -0.8412199   -0.3124147   -1.2900967 
H    -2.2646772    0.8364393    0.2717223 
H     1.0622950    2.7089244    2.0262858 
C     1.9690265   -0.1291780   -1.4794644 
C     1.5079289   -1.3424705   -2.3342069 
H     2.8257046   -0.4908489   -0.8643172 
H     2.3747682    0.6543970   -2.1551389 
C     0.7979924   -2.4194197   -1.5270113 
O    -0.5251451   -2.7709201   -1.7774313 
O     1.4856212   -3.0639636   -0.5054356 
H     0.8698861   -3.7474525   -0.0830343 
N     0.7691835   -0.9097442   -3.5360543 
H     2.4277685   -1.8646180   -2.6848325 
H     0.0078202   -0.2373060   -3.2961075 
H     1.4193848   -0.4057768   -4.1834869 
