24
Energy =
C     1.9283622    2.4272012   -1.2719547 
C     0.8781967    2.9678365   -0.6140864 
C     0.0308913    2.1603236    0.0768595 
C     2.1378920    1.0866732   -1.2503218 
C     1.2872871    0.2690749   -0.5680963 
C     0.2362379    0.8195169    0.1034282 
O     0.6964178    4.3536236   -0.6615642 
H    -0.1175767    4.6814185   -0.1521410 
H    -0.4470897    0.1928261    0.6707119 
H     2.9930200    0.6762679   -1.7804014 
H     2.6002100    3.0830420   -1.8154512 
H    -0.8126270    2.5838416    0.6117940 
C     1.5157750   -1.2329744   -0.5444294 
C     0.6173118   -2.0166657   -1.5428128 
H     1.3381808   -1.6095928    0.4891736 
H     2.5824670   -1.4666165   -0.7603006 
C    -0.8797836   -1.8971111   -1.1787141 
O    -1.2407319   -2.2079734    0.1272690 
O    -1.9078629   -1.5051147   -2.0392752 
H    -1.6836259   -1.5696925   -3.0121887 
N     1.0299703   -1.7450627   -2.9458733 
H     0.8207186   -3.0961966   -1.3588104 
H     0.2580679   -1.5269816   -3.6045447 
H     1.7050171   -0.9514487   -3.0273749 
