24
Energy =
C    -0.2762152    2.1847537   -1.6746229 
C    -0.4294016    2.6964011   -0.4317637 
C     0.2265829    2.1426212    0.6135710 
C     0.5279125    1.1096643   -1.8753977 
C     1.1866484    0.5421095   -0.8265329 
C     1.0324440    1.0672834    0.4212131 
O    -1.2545861    3.7983523   -0.2300076 
H    -2.2033780    3.5036092   -0.0270597 
H     1.5545060    0.6363355    1.2717994 
H     0.6429731    0.7112950   -2.8804506 
H    -0.7985900    2.6468965   -2.5054677 
H     0.1044186    2.5715517    1.6023718 
C     2.0783521   -0.6594365   -1.0513205 
C     1.2647354   -1.9570947   -1.2963663 
H     2.7710712   -0.8191774   -0.1935975 
H     2.7407358   -0.4570499   -1.9237925 
C     2.1459837   -3.0686930   -1.8421312 
O     1.5923672   -4.0666275   -2.6365483 
O     3.5126663   -3.0919118   -1.5803597 
H     3.9073250   -3.9263852   -1.9950733 
N     0.5783718   -2.4031626   -0.0647968 
H     0.5181753   -1.7677890   -2.1028600 
H     0.7154800   -1.7458624    0.7368206 
H    -0.4527321   -2.4598218   -0.2376120 
