24
Energy =
C    -0.2613837    2.1377641   -1.5781840 
C    -1.2362482    1.9598240   -0.6471664 
C    -1.0851990    1.0128303    0.3065900 
C     0.8585904    1.3712546   -1.5480924 
C     1.0144729    0.4227638   -0.5827644 
C     0.0313840    0.2418951    0.3406141 
O    -2.4020277    2.7317122   -0.6497197 
H    -2.4441854    3.4167872   -1.3966680 
H     0.1300251   -0.5195598    1.1106203 
H     1.6265055    1.5132891   -2.3089048 
H    -0.3780904    2.8900480   -2.3512357 
H    -1.8729147    0.8785819    1.0402816 
C     2.2478863   -0.4537302   -0.5651329 
C     2.0484960   -1.7425664   -1.3827397 
H     2.5057870   -0.7272887    0.4826132 
H     3.1280812    0.1049961   -0.9574906 
C     1.7830353   -1.4479316   -2.8532500 
O     2.6415562   -0.6240311   -3.5698103 
O     0.6639055   -1.9707613   -3.4829489 
H    -0.1385898   -1.4048574   -3.2493784 
N     3.2325018   -2.5977085   -1.1921419 
H     1.1492282   -2.2785869   -0.9978263 
H     3.0546780   -3.5254680   -1.6477143 
H     4.0480606   -2.1807062   -1.7062796 
