24
Energy =
C     1.5844944    1.8713309   -2.3542399 
C     0.3168427    2.2851390   -2.5823876 
C    -0.6849460    1.8657984   -1.7640587 
C     1.8619226    1.0454550   -1.3134895 
C     0.8642024    0.6299933   -0.4862930 
C    -0.4135885    1.0389330   -0.7229839 
O     0.0710560    3.1371132   -3.6636692 
H    -0.9022099    3.4017379   -3.7701561 
H    -1.2252830    0.7019031   -0.0823202 
H     2.8837332    0.7107330   -1.1535277 
H     2.3735619    2.2061037   -3.0191765 
H    -1.7052696    2.1876700   -1.9422571 
C     1.1666904   -0.3115297    0.6621139 
C     1.2080319   -1.8219793    0.2738029 
H     0.4307683   -0.1329112    1.4807121 
H     2.1456563   -0.0276487    1.1084005 
C     0.3080404   -2.6534223    1.1789657 
O     0.8360727   -3.7135098    1.9006194 
O    -1.0440742   -2.3565533    1.3023641 
H    -1.5307551   -2.6908131    0.4846210 
N     0.9135811   -2.0342832   -1.1576263 
H     2.2436488   -2.1878359    0.4686121 
H     1.0795029   -3.0411317   -1.3987339 
H    -0.0960633   -1.8355769   -1.3512690 
