24
Energy =
C     1.6430503    2.6998550   -0.2464446 
C     0.3817521    3.0191654   -0.6092973 
C    -0.4985155    2.0431881   -0.9212066 
C     2.0326850    1.4006925   -0.2057579 
C     1.1613964    0.4031507   -0.5358740 
C    -0.1186730    0.7404506   -0.8826052 
O    -0.0147402    4.3520249   -0.6494608 
H     0.1481698    4.7478143   -1.5688659 
H    -0.8585870   -0.0072650   -1.1348082 
H     3.0504589    1.1661883    0.0985710 
H     2.3344550    3.4928688    0.0186403 
H    -1.5127247    2.3148455   -1.1942204 
C     1.6518538   -1.0384798   -0.4368068 
C     0.8427292   -2.1099903   -1.2179947 
H     1.6920198   -1.3308970    0.6376916 
H     2.7087442   -1.0565659   -0.7906519 
C     1.7574064   -3.2096155   -1.7422168 
O     2.6894378   -3.8160852   -0.9095004 
O     1.6717382   -3.6130322   -3.0689093 
H     2.1570578   -2.9461009   -3.6507125 
N    -0.1901183   -2.6800825   -0.3325585 
H     0.3770653   -1.6645862   -2.1262978 
H    -0.8604758   -1.9440022   -0.0159772 
H    -0.7496312   -3.3926830   -0.8617621 
