24
Energy =
C    -1.0770688    1.5996076   -0.1854419 
C    -0.4248198    2.7320134    0.1524819 
C     0.9150733    2.8055411    0.0110675 
C    -0.3943570    0.5334989   -0.6765754 
C     0.9666767    0.5932441   -0.8318078 
C     1.6077998    1.7471888   -0.4784524 
O    -1.1324473    3.8198656    0.6544981 
H    -1.4233933    4.4359828   -0.0968386 
H     2.6871401    1.8328847   -0.5831424 
H    -0.9793952   -0.3365076   -0.9262678 
H    -2.1532393    1.5530695   -0.0559535 
H     1.4275375    3.7178601    0.2971475 
C     1.8412847   -0.5390741   -1.3771566 
C     1.1945055   -1.9038575   -1.7780387 
H     2.6211804   -0.7354721   -0.6065847 
H     2.3976543   -0.1218113   -2.2464623 
C     1.4135752   -2.2222889   -3.2542653 
O     0.4309656   -1.9079794   -4.1814992 
O     2.6146943   -2.7614425   -3.6994260 
H     3.3130017   -2.0347847   -3.7369582 
N     1.7249753   -2.9613833   -0.8954328 
H     0.0971536   -1.9067159   -1.6773836 
H     1.1951776   -3.8493360   -1.0699772 
H     2.7192101   -3.1743415   -1.1552446 
