24
 energy: -4.358776961592 gnorm: 0.000679027242 xtb: 6.4.0 (d4b70c2)
C         1.85123222798140    2.43292140660281   -0.16319096969515
C         0.54888352927762    2.90951209703594   -0.01630216742665
C        -0.49670095099899    1.98605048548700   -0.02156306720819
C         2.09822181742039    1.08846031324346   -0.30517474053499
C         1.05711167943250    0.17163336982787   -0.30200180087687
C        -0.23985619598183    0.64408285954522   -0.16528024699965
O         0.33055487743096    4.26579768310705    0.12577297711709
H        -0.62981260777301    4.44596587471816    0.21370078830576
H        -1.05226294324156   -0.06199466475470   -0.19650849483765
H         3.10888205372863    0.73655110678355   -0.41968498396237
H         2.65642394512288    3.14577946073222   -0.16215522508994
H        -1.50794044206763    2.33672520329357    0.08175533473809
C         1.32041204201797   -1.29333693133434   -0.47346565936220
C         0.91994432907670   -1.82702235771477   -1.85677946419411
H         0.76873064823998   -1.84483834820697    0.29546474442252
H         2.38076451803137   -1.49400653414089   -0.29114980096119
C        -0.58871120635525   -1.82754649177371   -2.03282910615825
O        -1.28664736694728   -1.93716353442967   -1.04786387235715
O        -1.04009382368427   -1.71090003128985   -3.30350137087616
H        -0.28323390146985   -1.65744395946118   -3.93071748199755
N         1.54432025315758   -1.06950849381249   -2.92928446148917
H         1.24746310120164   -2.87437516461984   -1.95417229709296
H         1.22127214417711   -0.11369519587062   -2.88817441435270
H         2.54878066457948   -1.05073809870019   -2.81305513681502
