24
Energy =
C     1.2050111    2.5164618   -1.4374024 
C     0.4469322    2.9050474   -0.3870166 
C     0.1138681    2.0004861    0.5724219 
C     1.6382177    1.2341546   -1.5360927 
C     1.3144491    0.3268689   -0.5737689 
C     0.5420875    0.7160868    0.4776638 
O     0.0229000    4.2361827   -0.3185699 
H    -0.5463313    4.4474270    0.4936745 
H     0.2610682    0.0026061    1.2486797 
H     2.2373769    0.9383816   -2.3957006 
H     1.4560898    3.2450249   -2.2008622 
H    -0.4979210    2.3018531    1.4159068 
C     1.7717493   -1.1109110   -0.6926062 
C     0.7438268   -1.9783183   -1.4427169 
H     1.9363865   -1.5398009    0.3213244 
H     2.7591167   -1.1648428   -1.2057121 
C     0.6130042   -1.5671414   -2.9127357 
O     1.7605436   -1.3872407   -3.6769305 
O    -0.6296485   -1.3980232   -3.5226348 
H    -1.3970621   -1.5845332   -2.8952928 
N     1.1392996   -3.3887994   -1.2974231 
H    -0.2470895   -1.8358542   -0.9543493 
H     0.3961076   -3.9989141   -1.7151147 
H     2.0096487   -3.5677877   -1.8573729 
