24
Energy =
C     1.0934286    2.7154581   -0.5625638 
C    -0.2225561    2.8186431   -0.2642958 
C    -0.9368660    1.7113772    0.0411406 
C     1.7042836    1.5027327   -0.5463312 
C     0.9941252    0.3848458   -0.2269310 
C    -0.3326037    0.4958413    0.0617447 
O    -0.8445676    4.0624017   -0.2840782 
H    -0.7925809    4.5042275    0.6271929 
H    -0.9140823   -0.3985422    0.2821217 
H     2.7602071    1.4347921   -0.7944748 
H     1.6493328    3.6106536   -0.8208152 
H    -1.9960223    1.8068977    0.2558068 
C     1.6572533   -0.9781000   -0.2090901 
C     1.2975142   -1.9020227   -1.4175131 
H     1.3944251   -1.4595170    0.7599817 
H     2.7628226   -0.8628405   -0.1644709 
C     0.9050020   -3.3089494   -0.9451730 
O     0.0529472   -3.4631748    0.1442694 
O     1.3531396   -4.4532919   -1.6073300 
H     1.9022078   -4.2324006   -2.4241790 
N     0.2436813   -1.3089244   -2.2641404 
H     2.2201360   -2.0113779   -2.0324129 
H     0.6405943   -0.4883151   -2.7814574 
H    -0.0438560   -1.9955587   -3.0027958 
