24
Energy =
C    -0.6006267    2.2371764   -0.7254112 
C     0.3040268    3.0637433   -0.1598843 
C     1.5626319    2.6162191    0.0768656 
C    -0.2645454    0.9647709   -1.0577094 
C     1.0023121    0.4982831   -0.8229950 
C     1.9077805    1.3467350   -0.2518009 
O    -0.0857747    4.3664017    0.1680884 
H     0.6509353    4.9270134    0.5824726 
H     2.9242675    1.0138213   -0.0524868 
H    -1.0400678    0.3657118   -1.5062186 
H    -1.6029285    2.6084711   -0.9110629 
H     2.2978410    3.2729363    0.5298106 
C     1.4961840   -0.9125651   -1.1562164 
C     0.5191956   -1.9568050   -1.7868598 
H     1.9047502   -1.3376087   -0.2122971 
H     2.3876375   -0.7963489   -1.8163434 
C     1.0199975   -2.4204440   -3.1523183 
O     0.4960005   -1.8568008   -4.3065172 
O     2.0614057   -3.3341546   -3.2606824 
H     1.7152804   -4.2601510   -3.0604059 
N     0.3346352   -3.0750533   -0.8411142 
H    -0.4774855   -1.5392681   -2.0010039 
H    -0.3757840   -3.7441825   -1.2235653 
H     1.2326118   -3.6066626   -0.7338244 
