24
Energy =
C     0.9429895    2.7097665   -0.8913854 
C     0.6812611    2.8017606    0.4327995 
C     0.6697277    1.6874700    1.1999595 
C     1.2066081    1.5017797   -1.4519997 
C     1.2131416    0.3776805   -0.6830377 
C     0.9323435    0.4758199    0.6467388 
O     0.4115992    4.0413000    1.0037109 
H     1.2661249    4.4784692    1.3303819 
H     0.9052021   -0.4152638    1.2706716 
H     1.3989547    1.4366939   -2.5196144 
H     0.9290364    3.6088271   -1.4980630 
H     0.4392705    1.7745616    2.2564147 
C     1.4812478   -0.9761654   -1.3086354 
C     0.2286148   -1.6646456   -1.9335288 
H     1.9547596   -1.6360669   -0.5449820 
H     2.2595793   -0.8621369   -2.0951915 
C     0.0504707   -3.0781622   -1.4021736 
O    -0.1598364   -3.2983442   -0.0459254 
O     0.1016993   -4.1618231   -2.2655602 
H    -0.0410784   -5.0082075   -1.7287359 
N    -0.9918565   -0.8527722   -1.7553146 
H     0.4144853   -1.7811004   -3.0269432 
H    -1.7762948   -1.2970679   -2.2893977 
H    -1.2781942   -0.8824426   -0.7460978 
