24
Energy =
C    -0.0702267    1.8097846    0.7070528 
C     0.2269180    2.7850659   -0.1929633 
C     1.0482977    2.5085730   -1.2311789 
C     0.4557370    0.5667417    0.5647370 
C     1.2891758    0.2903115   -0.4752620 
C     1.5779616    1.2676803   -1.3777658 
O    -0.2996230    4.0753975   -0.0766064 
H    -0.9051452    4.2044504    0.7266568 
H     2.2283547    1.0622541   -2.2262602 
H     0.2051099   -0.2043217    1.2890116 
H    -0.7307499    2.0214769    1.5409604 
H     1.2729094    3.2937413   -1.9452934 
C     1.8523413   -1.1026117   -0.6515254 
C     0.8717595   -2.0265506   -1.4139822 
H     2.0765630   -1.5373979    0.3479840 
H     2.8235193   -1.0621850   -1.1994193 
C     0.5765416   -1.5015954   -2.8113563 
O     1.6042973   -1.3064094   -3.7270956 
O    -0.7147284   -1.1186660   -3.1532333 
H    -0.8967523   -0.2041706   -2.7662298 
N     1.4034706   -3.4049300   -1.4784432 
H    -0.1097236   -2.0255460   -0.8825095 
H     2.3130190   -3.5210647   -0.9720048 
H     0.7219630   -4.0753123   -1.0503880 
