24
Energy =
C     2.1969447    2.2915749   -0.9301185 
C     0.9950543    2.9276273   -0.9819713 
C    -0.1374288    2.2482134   -0.6945682 
C     2.2688276    0.9828442   -0.5789091 
C     1.1355274    0.2952865   -0.2823302 
C    -0.0912948    0.9160751   -0.3802255 
O     0.8987212    4.2823460   -1.3173667 
H     1.7882914    4.7197451   -1.5304428 
H    -1.1279398    0.2692550    0.0240387 
H     3.2381643    0.4934426   -0.5368925 
H     3.1074360    2.8334301   -1.1621086 
H    -1.0874763    2.7674548   -0.7271767 
C     1.1651235   -1.1734236    0.1000314 
C     0.3578432   -2.0479703   -0.8935709 
H     0.7350982   -1.2806499    1.1196123 
H     2.2096333   -1.5532087    0.1481438 
C    -1.0239751   -1.4688410   -1.1979377 
O    -1.2432097   -0.0856654   -1.0699800 
O    -2.0355051   -2.2638788   -1.7042396 
H    -1.8475594   -2.4588577   -2.6763431 
N     1.1637522   -2.2305442   -2.1127645 
H     0.1734078   -3.0414885   -0.4221766 
H     0.6886449   -2.9211822   -2.7403114 
H     1.1992744   -1.3224287   -2.6387999 
