24
Energy =
C    -0.7685332    1.9182353   -1.7483054 
C    -0.5089448    2.6715394   -0.6549805 
C     0.5123489    2.3409247    0.1681586 
C    -0.0093145    0.8255874   -2.0195809 
C     1.0233265    0.4886364   -1.1970183 
C     1.2757185    1.2501113   -0.0965321 
O    -1.2897844    3.7896053   -0.3804315 
H    -2.0852622    3.5376185    0.1958860 
H     2.0845834    0.9863454    0.5800681 
H    -0.2318663    0.2235325   -2.8971538 
H    -1.5871551    2.1998667   -2.4021729 
H     0.7113836    2.9557841    1.0392221 
C     1.8572332   -0.7403098   -1.4838904 
C     1.2444543   -2.0013603   -0.8438334 
H     2.8968982   -0.5985825   -1.1113784 
H     1.9487950   -0.8784736   -2.5858048 
C     1.9082858   -3.2573767   -1.3918106 
O     1.3272513   -3.9291699   -2.4576500 
O     3.1315390   -3.6957111   -0.9010006 
H     2.9804420   -4.1974360   -0.0389322 
N     1.3332104   -1.8952129    0.6254444 
H     0.1719621   -2.0736905   -1.1429173 
H     0.8630286   -2.7216574    1.0654744 
H     2.3390409   -1.9171045    0.9223367 
