24
Energy =
C    -0.4657908    1.3862276    0.9724680 
C    -0.0858239    2.5649621    0.4111416 
C     0.9411324    2.5859751   -0.4686831 
C     0.1841269    0.2383304    0.6536913 
C     1.2243040    0.2596301   -0.2246772 
C     1.5943258    1.4409203   -0.7918062 
O    -0.7336110    3.7659349    0.7178492 
H    -1.4940459    3.6671952    1.3817042 
H     2.4117725    1.4785610   -1.5076796 
H    -0.1389288   -0.6995457    1.0986257 
H    -1.2929683    1.3578968    1.6733918 
H     1.2305893    3.5321346   -0.9130584 
C     1.9358290   -1.0219301   -0.5995270 
C     1.2600081   -1.7130726   -1.7990021 
H     1.9617567   -1.7185780    0.2684730 
H     3.0006238   -0.7998294   -0.8413268 
C     2.1469016   -2.8204137   -2.3453687 
O     2.4085486   -3.9497059   -1.5819832 
O     2.7394429   -2.6914892   -3.5929674 
H     2.0635091   -2.9220894   -4.3066740 
N    -0.0674799   -2.2101392   -1.3923294 
H     1.1419618   -0.9686529   -2.6212839 
H    -0.5718141   -2.5732945   -2.2356195 
H     0.0483535   -3.0290062   -0.7457117 
