24
Energy =
C     2.1861441    2.3359597   -1.0662506 
C     0.9721454    2.9507616   -1.0497878 
C    -0.1266683    2.2577899   -0.6764317 
C     2.3043979    1.0355262   -0.6970025 
C     1.2053364    0.3353072   -0.3142476 
C    -0.0355607    0.9324558   -0.3425238 
O     0.8296784    4.2973650   -1.4013084 
H     1.6947012    4.7449676   -1.6832181 
H    -1.0272523    0.2713310    0.1401770 
H     3.2829865    0.5631456   -0.7093386 
H     3.0695571    2.8885402   -1.3672367 
H    -1.0860188    2.7602885   -0.6561300 
C     1.2837618   -1.1228598    0.0958263 
C     0.4309256   -2.0337317   -0.8238507 
H     0.9218134   -1.2143034    1.1429779 
H     2.3354899   -1.4855433    0.0870851 
C    -0.9802667   -1.4784515   -1.0793465 
O    -1.2127587   -0.0966238   -0.9387863 
O    -2.0119460   -2.2834958   -1.5483835 
H    -1.7206486   -3.2430443   -1.6612549 
N     1.1705178   -2.2496827   -2.0776974 
H     0.3077686   -3.0129196   -0.3080910 
H     0.6472696   -2.9339191   -2.6734800 
H     1.1881965   -1.3510621   -2.6204953 
