24
Energy =
C     1.3328533    2.4784775   -1.8170749 
C     0.9460838    2.9969453   -0.6291467 
C     0.8507366    2.1987779    0.4589924 
C     1.6198139    1.1559657   -1.9228815 
C     1.5254921    0.3456057   -0.8317477 
C     1.1349618    0.8749336    0.3609345 
O     0.6520927    4.3528216   -0.5247273 
H    -0.3331168    4.5193830   -0.6988309 
H     1.0501001    0.2438052    1.2418289 
H     1.9199643    0.7508506   -2.8872962 
H     1.4091200    3.1309219   -2.6803345 
H     0.5476324    2.6303530    1.4067717 
C     1.8192181   -1.1345327   -0.9465763 
C     0.5326668   -1.9639871   -1.1393589 
H     2.3511117   -1.4731227   -0.0302973 
H     2.5185245   -1.3375853   -1.7910393 
C    -0.1769488   -1.6288295   -2.4590225 
O     0.5645885   -1.3815215   -3.6101500 
O    -1.5699702   -1.6009331   -2.5471052 
H    -2.0120364   -1.8540705   -1.6770348 
N     0.8894443   -3.3904006   -1.0692534 
H    -0.1691825   -1.7192227   -0.3093383 
H     1.2008848   -3.6259367   -0.0971779 
H     0.0394948   -3.9759597   -1.2527452 
