24
Energy =
C     1.0365466    2.4125822   -1.8975090 
C     0.0631506    2.8986975   -1.0939639 
C    -0.3471631    2.1857770   -0.0199105 
C     1.6008138    1.2068914   -1.6321585 
C     1.1945144    0.4840163   -0.5510228 
C     0.2110292    0.9782935    0.2511885 
O    -0.5130429    4.1346282   -1.3694745 
H    -1.3242738    4.0237494   -1.9684552 
H    -0.1355909    0.4115099    1.1113565 
H     2.3704264    0.8195448   -2.2963154 
H     1.3549902    2.9951429   -2.7553136 
H    -1.1256936    2.5905361    0.6176855 
C     1.7948026   -0.8764084   -0.2717466 
C     0.9924806   -2.0039547   -0.9633127 
H     1.8143239   -1.0532017    0.8272399 
H     2.8572925   -0.8998037   -0.6027233 
C     0.9975337   -1.8752079   -2.4870231 
O    -0.1709362   -1.4986803   -3.1382750 
O     2.1592873   -2.0403467   -3.2421139 
H     2.9226695   -2.3674157   -2.6725564 
N     1.4900711   -3.3187314   -0.5168670 
H    -0.0823743   -1.9134334   -0.6746940 
H     2.5357148   -3.3615608   -0.5616938 
H     1.2239668   -3.4711815    0.4852422 
