24
Energy =
C     0.6826528    2.8363396   -0.8218818 
C    -0.4315324    2.8548636   -0.0542824 
C    -0.8312324    1.7321981    0.5862191 
C     1.4090663    1.6956640   -0.9429930 
C     1.0206454    0.5661312   -0.2890841 
C    -0.1105651    0.5876806    0.4703158 
O    -1.1740094    4.0252440    0.0658098 
H    -0.8506326    4.5749882    0.8541202 
H    -0.4507852   -0.3132097    0.9772037 
H     2.2954778    1.6908218   -1.5726891 
H     0.9812575    3.7393228   -1.3437589 
H    -1.7367068    1.7571255    1.1830187 
C     1.8106367   -0.7148890   -0.4392560 
C     1.3996935   -1.6896252   -1.6017870 
H     1.7827688   -1.2481875    0.5400538 
H     2.8865491   -0.4575983   -0.5618248 
C     1.2162696   -3.1038813   -1.0698725 
O     0.0834646   -3.4388801   -0.3371970 
O     2.2156915   -4.0498278   -1.2448776 
H     1.9171445   -4.9202826   -0.8227040 
N     0.2563579   -1.2461068   -2.4461408 
H     2.2789165   -1.7799085   -2.2811149 
H    -0.5098358   -1.9630089   -2.4579817 
H    -0.2039867   -0.3613083   -2.1482997 
