24
Energy =
C     0.2589635    2.4082724   -0.6637500 
C     1.5750766    2.7475608   -0.6967179 
C     2.5149281    1.7995946   -0.4808190 
C    -0.1087510    1.1260087   -0.4154182 
C     0.8366560    0.1690550   -0.1979796 
C     2.1529044    0.5162112   -0.2287796 
O     1.9873120    4.0604552   -0.9475226 
H     1.2257886    4.7094211   -1.1124149 
H     2.9267015   -0.2304379   -0.0653374 
H    -1.1651683    0.8708970   -0.3920881 
H    -0.5020480    3.1615080   -0.8358606 
H     3.5617958    2.0810442   -0.5159809 
C     0.4190250   -1.2612433    0.0819489 
C    -0.1028614   -1.9919160   -1.1888095 
H    -0.3615234   -1.2317006    0.8718941 
H     1.2563685   -1.8448428    0.5286373 
C     1.0564879   -2.5090671   -2.0629906 
O     2.2819918   -1.8542916   -2.0411536 
O     0.9120119   -3.5656995   -2.9633553 
H     0.0250384   -4.0304431   -2.8728912 
N    -1.0180056   -3.0763346   -0.7739952 
H    -0.6608647   -1.2715304   -1.8307398 
H    -1.7111264   -2.7282970   -0.0696508 
H    -1.6183567   -3.3464222   -1.5878178 
