24
Energy =
C     1.2814092    2.5517927   -0.9722098 
C     0.1458703    2.7847140   -0.2745235 
C    -0.4811483    1.7661215    0.3576912 
C     1.7915120    1.2960991   -1.0448866 
C     1.1670502    0.2660006   -0.4082456 
C     0.0225104    0.5074157    0.2893466 
O    -0.3742728    4.0730192   -0.2019134 
H    -1.0328631    4.2381955   -0.9554024 
H    -0.4946937   -0.3022935    0.7979037 
H     2.6993118    1.1218107   -1.6195176 
H     1.7772199    3.3783404   -1.4704257 
H    -1.3863407    1.9693307    0.9197701 
C     1.7160446   -1.1398201   -0.5088378 
C     1.0320280   -1.9414750   -1.6404321 
H     1.5714913   -1.6592531    0.4642773 
H     2.8169615   -1.1130022   -0.6831991 
C     1.2635628   -1.3050575   -3.0022941 
O     2.5500264   -1.1988190   -3.5172545 
O     0.2062802   -0.7309630   -3.6959390 
H     0.0109103    0.1772692   -3.3021206 
N     1.5060129   -3.3364603   -1.6152698 
H    -0.0737046   -1.9362946   -1.4941739 
H     2.5362370   -3.3696353   -1.8153099 
H     1.3472893   -3.7622203   -0.6720340 
