24
Energy =
C     1.7440880    2.1511682    0.3994757 
C     1.2242260    2.9404763   -0.5783645 
C     0.2451815    2.4584307   -1.3771864 
C     1.2798071    0.8877728    0.5749569 
C     0.2862023    0.4057762   -0.2211009 
C    -0.2228715    1.1960000   -1.2062564 
O     1.6788033    4.2464166   -0.7855500 
H     2.4183917    4.5312517   -0.1527444 
H    -1.0000452    0.8182122   -1.8673869 
H     1.7139627    0.2602373    1.3487937 
H     2.5357582    2.5262708    1.0390366 
H    -0.1544612    3.0959709   -2.1585001 
C    -0.2180063   -1.0124325   -0.0436816 
C     0.6151634   -2.0969537   -0.7943636 
H    -1.2887379   -1.0529915   -0.3513707 
H    -0.2341105   -1.2564678    1.0416011 
C    -0.2728743   -2.9792082   -1.6550355 
O    -0.9932648   -2.4369315   -2.7131573 
O    -0.3849813   -4.3339053   -1.3802127 
H    -1.0132084   -4.7492313   -2.0569401 
N     1.7214267   -1.5013548   -1.5716217 
H     1.0500152   -2.7844553   -0.0312470 
H     2.3230158   -2.2703079   -1.9524637 
H     1.3255135   -1.0060579   -2.4080131 
