24
Energy =
C    -0.1812216    1.3353003    1.0507561 
C     0.0344894    2.5314681    0.4581389 
C     0.8412275    2.6041496   -0.6336952 
C     0.4011357    0.2106397    0.5631312 
C     1.2130216    0.2772988   -0.5281933 
C     1.4285633    1.4829695   -1.1243451 
O    -0.5837703    3.6675737    0.9904141 
H    -0.3856100    4.5215299    0.4802733 
H     2.0627917    1.5578125   -2.0054890 
H     0.2115854   -0.7414748    1.0521669 
H    -0.8286279    1.2903525    1.9197824 
H     1.0152180    3.5581038   -1.1199333 
C     1.8538111   -0.9851341   -1.0701865 
C     0.8625997   -1.8333272   -1.9193158 
H     2.2385828   -1.5665504   -0.2047507 
H     2.7596694   -0.7473803   -1.6738163 
C     0.8313058   -1.3583249   -3.3861721 
O     1.0902468   -0.0255080   -3.6807383 
O     0.4661470   -2.1871690   -4.4482108 
H     0.3825350   -3.1529642   -4.1860150 
N     1.2238562   -3.2620561   -1.7931548 
H    -0.1740582   -1.6860498   -1.5354145 
H     1.3425319   -3.5162685   -0.7842569 
H     0.4117983   -3.8512439   -2.0938947 
