24
Energy =
C    -0.7450439    2.0545045   -1.6277528 
C     0.1346954    2.3926077   -2.5980736 
C     1.3857880    1.8773911   -2.5881418 
C    -0.3775882    1.1943410   -0.6449807 
C     0.8822228    0.6746578   -0.6251983 
C     1.7610961    1.0159435   -1.6082000 
O    -0.2458717    3.2742076   -3.6045764 
H    -0.6408402    2.7696174   -4.3907124 
H     2.7633213    0.5957704   -1.6196368 
H    -1.0979989    0.9167963    0.1211184 
H    -1.7441066    2.4759246   -1.6457694 
H     2.0805599    2.1593820   -3.3718933 
C     1.2863562   -0.3058859    0.4572865 
C     1.0391215   -1.8058117    0.1013079 
H     0.7588856   -0.0298586    1.3994500 
H     2.3640526   -0.1614481    0.6915605 
C     0.2132420   -2.5128310    1.1666104 
O     0.6229647   -3.7463257    1.6583856 
O    -0.9662326   -1.9476664    1.6394639 
H    -1.3825279   -2.5748784    2.3161023 
N     0.4506201   -1.9620673   -1.2438289 
H     2.0284290   -2.3201827    0.1095272 
H     0.4374879   -2.9794905   -1.4972538 
H    -0.5522787   -1.6577234   -1.2168735 
