24
Energy =
C     0.9174905    2.7717103   -0.6760823 
C    -0.2286911    2.8522463    0.0386769 
C    -0.7639658    1.7376494    0.5878382 
C     1.5309572    1.5728668   -0.8492740 
C     1.0000855    0.4478923   -0.2952571 
C    -0.1564591    0.5353930    0.4196252 
O    -0.8550561    4.0823132    0.2125709 
H    -1.5241537    4.2519545   -0.5302067 
H    -0.6023694   -0.3568320    0.8545724 
H     2.4461108    1.5199354   -1.4338739 
H     1.3380324    3.6745784   -1.1059299 
H    -1.6804179    1.8181103    1.1625092 
C     1.6669070   -0.8942823   -0.4997124 
C     1.2205473   -1.7467988   -1.7424970 
H     1.5393246   -1.4839027    0.4383808 
H     2.7677824   -0.7393928   -0.5568352 
C     0.8665040   -3.1657158   -1.3169007 
O     1.8090097   -4.1804596   -1.4144522 
O    -0.3758432   -3.4475027   -0.7639667 
H    -0.4054070   -4.4326676   -0.5318410 
N     0.1749614   -1.1345803   -2.6078516 
H     2.1214153   -1.8831551   -2.3843389 
H    -0.6575522   -1.7676894   -2.6961327 
H    -0.2135895   -0.2338107   -2.2622144 
