24
Energy =
C     0.0109385    1.9025040    0.7062318 
C     0.3331842    2.8290164   -0.2255782 
C     1.1264511    2.4930753   -1.2682121 
C     0.4763463    0.6320821    0.5946699 
C     1.2787281    0.2870816   -0.4505643 
C     1.5973425    1.2255729   -1.3859605 
O    -0.1475516    4.1292905   -0.1088328 
H    -1.0427256    4.2216663   -0.5768351 
H     2.2210806    0.9647977   -2.2391465 
H     0.2025371   -0.1039526    1.3463740 
H    -0.6217904    2.1877837    1.5398442 
H     1.3767683    3.2462749   -2.0075270 
C     1.7744269   -1.1360655   -0.5936024 
C     0.7741823   -2.0171385   -1.3809057 
H     1.9380574   -1.5719409    0.4173005 
H     2.7649519   -1.1505388   -1.1046510 
C     0.5842632   -1.5126289   -2.8057383 
O     1.6805277   -1.3170480   -3.6354963 
O    -0.6891785   -1.2712983   -3.2991185 
H    -1.1021919   -2.1508504   -3.5734797 
N     1.1818661   -3.4437597   -1.3272029 
H    -0.2302260   -1.9224937   -0.9054823 
H     1.3232337   -3.8374517   -2.2900711 
H     2.1005346   -3.5794250   -0.8419197 
