24
Energy =
C    -0.3180118    2.3579781   -0.5170276 
C     0.3633673    2.8606036   -1.5713315 
C     1.4065144    2.1611384   -2.0936091 
C     0.0350037    1.1651740    0.0234473 
C     1.0856364    0.4655062   -0.4883258 
C     1.7641074    0.9666773   -1.5569696 
O    -0.0299312    4.0942329   -2.0990271 
H     0.5224400    4.3983618   -2.8934894 
H     2.5893701    0.4100602   -1.9936669 
H    -0.5331173    0.7672605    0.8613513 
H    -1.1534667    2.9203576   -0.1147209 
H     1.9532138    2.5524860   -2.9449278 
C     1.4654425   -0.8789797    0.0998047 
C     0.7533581   -2.1005908   -0.5612213 
H     1.2752564   -0.8527465    1.1979922 
H     2.5666903   -1.0131416    0.0164286 
C     0.0884217   -2.9887683    0.4792867 
O    -0.7852232   -2.4462819    1.4129412 
O     0.3300958   -4.3548643    0.4906642 
H    -0.2223612   -4.7920543   -0.2324706 
N    -0.1929860   -1.6810915   -1.6144879 
H     1.5413891   -2.7362030   -1.0285306 
H    -0.5183879   -2.5216892   -2.1483665 
H    -1.0475617   -1.2650327   -1.1707069 
