24
Energy =
C     0.8039308    2.6061643   -1.4594487 
C     0.7113570    2.9563643   -0.1565249 
C     0.9581782    2.0295730    0.8075710 
C     1.1423208    1.3395158   -1.8089382 
C     1.3997604    0.4096603   -0.8479125 
C     1.2983273    0.7614199    0.4636450 
O     0.3593012    4.2716770    0.1631943 
H     0.3064441    4.4540393    1.1594759 
H     1.4789156    0.0267476    1.2443299 
H     1.2056224    1.0763163   -2.8615087 
H     0.6008814    3.3528421   -2.2192678 
H     0.8793995    2.2988085    1.8553189 
C     1.7574563   -1.0096974   -1.2350948 
C     0.5064489   -1.9048429   -1.3232979 
H     2.4763426   -1.4365613   -0.4989826 
H     2.2858808   -1.0034369   -2.2154992 
C     0.8446294   -3.2396980   -1.9906826 
O     1.3637682   -4.2792273   -1.2278454 
O     0.7103787   -3.4215228   -3.3672509 
H     0.3862029   -2.5882649   -3.8346539 
N    -0.0678950   -2.0752742    0.0250918 
H    -0.2486173   -1.3987071   -1.9669833 
H    -0.9814964   -2.5825831   -0.0534069 
H     0.5564068   -2.6850186    0.6083301 
