24
Energy =
C    -0.7080649    1.9254339   -0.3699847 
C     0.2462165    2.8854164   -0.4891443 
C     1.5520911    2.5334664   -0.5369601 
C    -0.3565071    0.6015362   -0.3326597 
C     0.9789472    0.2634002   -0.3312988 
C     1.9239482    1.2309046   -0.4548298 
O    -0.0849892    4.2432960   -0.5527704 
H    -1.0829585    4.4251584   -0.5543842 
H     2.9782532    0.9723793   -0.4926631 
H    -1.2031554   -0.3391918   -0.0980250 
H    -1.7552738    2.1968012   -0.3170904 
H     2.2984134    3.3139244   -0.6369763 
C     1.3386357   -1.2080068   -0.2466504 
C     0.7459863   -2.0175239   -1.4297535 
H     0.9437291   -1.6125459    0.7105694 
H     2.4416706   -1.3433936   -0.2215494 
C    -0.7336674   -1.6925465   -1.6867801 
O    -1.2684395   -0.4675938   -1.2437713 
O    -1.5552969   -2.5461982   -2.4133747 
H    -1.0591971   -3.3523500   -2.7606704 
N     1.5719279   -1.7600636   -2.6219495 
H     0.7838139   -3.1003528   -1.1692201 
H     2.4507169   -2.3255600   -2.5681556 
H     1.0665358   -2.0651580   -3.4882022 
