24
Energy =
C     1.8745495    2.6845434   -0.4983794 
C     0.7460542    3.0523303   -1.1431622 
C    -0.1708306    2.1208464   -1.4842042 
C     2.0958410    1.3789520   -0.2019816 
C     1.1882932    0.4225672   -0.5551870 
C     0.0408717    0.8123117   -1.1912943 
O     0.5218270    4.3916932   -1.4447455 
H     0.8951503    4.6209077   -2.3595274 
H    -0.7224438    0.1013370   -1.4790149 
H     3.0073798    1.1058884    0.3249050 
H     2.5945841    3.4453821   -0.2158380 
H    -1.0792789    2.4340748   -1.9877191 
C     1.4831362   -1.0233423   -0.1653236 
C     0.6851088   -2.1255516   -0.9157216 
H     1.3209941   -1.1329790    0.9304946 
H     2.5729066   -1.1945998   -0.3321109 
C     1.5326260   -3.3842523   -1.0863738 
O     2.1022125   -3.6538911   -2.3238612 
O     1.8003492   -4.2408112   -0.0203566 
H     1.3026631   -3.9481599    0.8083054 
N    -0.5574843   -2.4258989   -0.1765760 
H     0.4570593   -1.7977380   -1.9570789 
H    -1.1065163   -1.5541566    0.0051089 
H    -1.1678443   -3.0487348   -0.7601619 
