24
Energy =
C     1.4513083    2.5766021    0.4439900 
C     0.1876249    2.9798266    0.2046735 
C    -0.6680195    2.1475768   -0.4384503 
C     1.8676211    1.3491624    0.0460129 
C     1.0224390    0.4920603   -0.6046770 
C    -0.2587019    0.9156872   -0.8405600 
O    -0.2058550    4.2527875    0.6286810 
H    -1.1711270    4.4802458    0.4162403 
H    -0.9912128    0.3192976   -1.3432532 
H     2.8942093    1.0572929    0.2566871 
H     2.1276252    3.2501252    0.9599560 
H    -1.6867769    2.4662023   -0.6346960 
C     1.6247541   -0.8684212   -0.9974026 
C     0.8909375   -2.0272075   -1.7670997 
H     2.0373260   -1.2911415   -0.0520216 
H     2.5287459   -0.6265806   -1.6012549 
C     0.8949778   -3.3280509   -0.9652995 
O     0.1152129   -3.4525729    0.1771963 
O     1.7241222   -4.3783345   -1.3364762 
H     2.6623225   -4.1902585   -1.0154545 
N    -0.4525985   -1.6788204   -2.2557782 
H     1.5198709   -2.2604161   -2.6603319 
H    -0.6779487   -2.2782968   -3.0865480 
H    -1.1652193   -1.9427412   -1.5295244 
