24
Energy =
C    -1.2767193    1.4006073   -0.4315921 
C    -0.8018709    2.6437759   -0.2061488 
C     0.5228377    2.8848815   -0.2924415 
C    -0.4299867    0.3891580   -0.7540846 
C     0.9186347    0.6176300   -0.8511166 
C     1.3782883    1.8826784   -0.6137990 
O    -1.6767600    3.6742075    0.1236447 
H    -1.9980361    4.1527105   -0.7110160 
H     2.4413449    2.1038654   -0.6780641 
H    -0.8797157   -0.5754796   -0.9221199 
H    -2.3435533    1.2213575   -0.3486749 
H     0.8917177    3.8863884   -0.0982281 
C     1.9682653   -0.4384315   -1.2103885 
C     1.5226024   -1.9191769   -1.5016155 
H     2.7305867   -0.4115037   -0.4041607 
H     2.5134830   -0.0441959   -2.0982607 
C     1.7842586   -2.2960734   -2.9584025 
O     0.7969860   -2.0937100   -3.9123050 
O     3.0312633   -2.7560052   -3.3648395 
H     3.6579145   -1.9715374   -3.4609029 
N     2.1275526   -2.8796934   -0.5418344 
H     0.4345532   -2.0599606   -1.4190701 
H     2.6849416   -3.6229240   -1.0322700 
H     2.7697546   -2.4452141    0.1580085 
