24
Energy =
C     0.5885925    2.5628917   -1.4368812 
C     0.0138438    2.8216949   -0.2408476 
C     0.0114766    1.8645875    0.7244436 
C     1.1596462    1.3567126   -1.6788034 
C     1.1625296    0.3933993   -0.7150929 
C     0.5856583    0.6575422    0.4900968 
O    -0.5650107    4.0773804   -0.0310146 
H    -0.9978444    4.1871167    0.8797714 
H     0.5645385   -0.1016717    1.2692378 
H     1.6111163    1.1696888   -2.6491283 
H     0.5827880    3.3329409   -2.2003161 
H    -0.4546651    2.0598977    1.6838344 
C     1.7907814   -0.9603179   -0.9848145 
C     0.7789566   -2.0314518   -1.4666234 
H     2.2951973   -1.3224027   -0.0597674 
H     2.5983425   -0.8559206   -1.7424635 
C    -0.1997517   -2.4333818   -0.3721454 
O    -1.3121654   -1.6539433   -0.0837415 
O     0.0565645   -3.5506259    0.4107800 
H    -0.1650292   -4.3802755   -0.1204378 
N     0.0950889   -1.6102601   -2.7040172 
H     1.3515600   -2.9610410   -1.6860850 
H    -0.5868913   -0.8412459   -2.4882427 
H     0.7853154   -1.2355473   -3.3957156 
