24
Energy =
C    -0.3562153    1.8360194   -2.4236995 
C    -0.5327746    2.6807833   -1.3727577 
C     0.2216672    2.5298950   -0.2605820 
C     0.5740953    0.8499347   -2.3578970 
C     1.3368771    0.7013359   -1.2403811 
C     1.1504553    1.5431829   -0.1875566 
O    -1.4820327    3.7080506   -1.4069855 
H    -2.0148466    3.7501514   -2.2692127 
H     1.7412852    1.4336676    0.7181636 
H     0.6928128    0.1712823   -3.2013011 
H    -0.9628386    1.9435496   -3.3162814 
H     0.0684902    3.2080507    0.5715835 
C     2.3507350   -0.4170441   -1.1519288 
C     1.7415787   -1.7001306   -0.5564131 
H     3.2162168   -0.0903150   -0.5338055 
H     2.7761330   -0.6445576   -2.1575980 
C     0.6707646   -2.2865204   -1.4846934 
O     1.0478028   -3.0577363   -2.5773782 
O    -0.6856805   -2.0165275   -1.2957354 
H    -0.8452345   -1.3618764   -0.5444731 
N     2.8427656   -2.6492175   -0.3145386 
H     1.2435076   -1.4622435    0.4121620 
H     3.3825216   -2.3516885    0.5321243 
H     2.4573829   -3.6016034   -0.1009512 
