24
Energy =
C    -0.5833290    1.9042135    0.0009795 
C     0.3206237    2.8168515    0.4146180 
C     1.6442028    2.5672235    0.2542525 
C    -0.1820320    0.7405527   -0.5719005 
C     1.1516181    0.4742709   -0.7394172 
C     2.0547170    1.4081332   -0.3170968 
O    -0.1376428    4.0011655    1.0009202 
H     0.6014617    4.6371353    1.2803545 
H     3.1223290    1.2335019   -0.4340996 
H    -0.9632116    0.0637429   -0.8764270 
H    -1.6384836    2.1186060    0.1343457 
H     2.3793339    3.2943797    0.5825353 
C     1.7237003   -0.7979451   -1.3719494 
C     0.7541939   -1.9263717   -1.8900245 
H     2.4524767   -1.2134171   -0.6459126 
H     2.3746252   -0.4679244   -2.2154764 
C     0.8596221   -2.1068209   -3.3996347 
O    -0.2923754   -2.1782865   -4.1763365 
O     2.0990162   -2.1872938   -4.0260200 
H     1.9477593   -2.3509604   -5.0125811 
N     0.9959271   -3.2200136   -1.2087136 
H    -0.3063109   -1.6632410   -1.7508554 
H     1.7531748   -3.1948278   -0.4893749 
H     0.1258519   -3.5352043   -0.7181118 
