24
Energy =
C     0.6540283    2.1580877    0.8785856 
C     0.8606414    2.9830488   -0.1726999 
C     1.2449493    2.4631897   -1.3687819 
C     0.8254600    0.8178339    0.7466581 
C     1.2111995    0.2931996   -0.4493541 
C     1.4225298    1.1247248   -1.5053495 
O     0.6713000    4.3576280    0.0043255 
H     0.8253489    4.9041545   -0.8361903 
H     1.7173762    0.7203382   -2.4716603 
H     0.6533054    0.1735394    1.6047742 
H     0.3483547    2.5878302    1.8261964 
H     1.4066915    3.1152715   -2.2202296 
C     1.4035256   -1.2006281   -0.6132273 
C     0.2870702   -1.9233053   -1.4463703 
H     1.4689821   -1.6858690    0.3863595 
H     2.4159071   -1.3558662   -1.0425641 
C    -0.9185077   -1.0483091   -1.8043385 
O    -0.9575253   -0.3389535   -2.9991911 
O    -1.9761869   -0.9195181   -0.9137998 
H    -1.6953964   -0.3078324   -0.1633654 
N     0.8494913   -2.6485282   -2.6161197 
H    -0.1645148   -2.6975733   -0.7843571 
H     0.4389187   -2.3046023   -3.5190642 
H     1.8834588   -2.5423776   -2.7224315 
