24
Energy =
C     1.8436396    2.3554395   -1.6061091 
C     1.0595757    2.9606881   -0.6845310 
C     0.3745343    2.2173462    0.2145165 
C     1.9552367    1.0030440   -1.6237828 
C     1.2806231    0.2473370   -0.7120291 
C     0.4842869    0.8645424    0.2057148 
O     0.9510492    4.3478393   -0.6677653 
H     1.6680282    4.7580514   -0.0798300 
H    -0.0820433    0.2787480    0.9267657 
H     2.5773948    0.5275222   -2.3778481 
H     2.3722106    2.9623964   -2.3332004 
H    -0.2687796    2.7132550    0.9335590 
C     1.3935760   -1.2645352   -0.7356750 
C     0.2956604   -1.9440276   -1.5795113 
H     1.3545369   -1.6577143    0.3054144 
H     2.3861771   -1.5626173   -1.1402038 
C    -1.1009167   -1.6873097   -1.0226941 
O    -1.8709012   -0.6256540   -1.4789087 
O    -1.5907176   -2.4786481    0.0075958 
H    -1.9190945   -3.3535616   -0.3739754 
N     0.4491640   -1.5581712   -2.9954048 
H     0.4484938   -3.0440562   -1.4922751 
H    -0.1865016   -2.1512123   -3.5803641 
H     0.1049523   -0.5749481   -3.1267656 
