24
Energy =
C     0.0801983    1.6448101    1.2298443 
C     0.2510769    2.7657318    0.4917525 
C     0.8686532    2.6977565   -0.7102884 
C     0.5229632    0.4487139    0.7651099 
C     1.1498270    0.3736147   -0.4424168 
C     1.3141046    1.5050591   -1.1823124 
O    -0.2041356    3.9896687    0.9711234 
H    -1.1592199    4.1586584    0.6748973 
H     1.7994807    1.4618573   -2.1541665 
H     0.3691922   -0.4495778    1.3599867 
H    -0.4124873    1.7150068    2.1938227 
H     1.0031164    3.6061022   -1.2880155 
C     1.6249670   -0.9624437   -0.9695142 
C     0.6103997   -1.8079364   -1.8224734 
H     1.9908172   -1.5574329   -0.1001609 
H     2.5438288   -0.7961665   -1.5758002 
C     0.5378243   -3.2395971   -1.3047029 
O    -0.1545131   -3.5258681   -0.1353142 
O     1.2330007   -4.2555150   -1.9462603 
H     2.2080837   -4.2033117   -1.6912971 
N    -0.7380850   -1.2052726   -2.0089499 
H     1.0472907   -1.9175343   -2.8417847 
H    -1.4944536   -1.8441435   -1.6597808 
H    -0.8980492   -0.3005607   -1.5204387 
