24
Energy =
C     0.0393571    2.0804537    0.5161002 
C     0.9968821    2.8730125   -0.0353858 
C     1.9912667    2.3131086   -0.7613234 
C     0.0836288    0.7354223    0.3421028 
C     1.0909455    0.1693143   -0.3787923 
C     2.0422192    0.9683685   -0.9363237 
O     0.9820588    4.2620028    0.1282211 
H     0.1968858    4.6059738    0.6699612 
H     2.8429263    0.5398516   -1.5353240 
H    -0.6936600    0.1160897    0.7823158 
H    -0.7654530    2.5204713    1.0947914 
H     2.7429394    2.9564341   -1.2058370 
C     1.1275638   -1.3293620   -0.5928296 
C     0.2956352   -1.7565560   -1.8258934 
H     0.7328169   -1.8372259    0.3151109 
H     2.1798283   -1.6751756   -0.7153137 
C     0.8634898   -1.1625858   -3.1094025 
O     2.1622816   -1.4590058   -3.5024619 
O     0.0852840   -0.3363224   -3.9069997 
H    -0.5110193   -0.9086990   -4.4867103 
N     0.1713835   -3.2342190   -1.8869495 
H    -0.7290808   -1.3302542   -1.7228614 
H     0.5530236   -3.6147980   -2.7879757 
H     0.7182608   -3.7139010   -1.1334678 
