24
Energy =
C     0.0078674    1.4738774    1.2279133 
C    -0.0924780    2.5961837    0.4662215 
C     0.4703897    2.6221160   -0.7632260 
C     0.6749865    0.3887199    0.7594389 
C     1.2551580    0.4196730   -0.4723052 
C     1.1402412    1.5411877   -1.2353044 
O    -0.7664256    3.7338321    0.9221339 
H    -1.1903412    3.6232072    1.8369420 
H     1.5650633    1.5690589   -2.2351714 
H     0.7322104   -0.5071431    1.3724558 
H    -0.4503985    1.4392687    2.2104775 
H     0.3689207    3.5158808   -1.3686322 
C     1.9771207   -0.7995565   -1.0132313 
C     1.0833581   -1.7524374   -1.8806809 
H     2.3942439   -1.3818360   -0.1612012 
H     2.8781123   -0.4519433   -1.5609079 
C    -0.3884834   -1.3545393   -1.9449014 
O    -1.3207210   -2.0138173   -1.1531447 
O    -0.8149963   -0.3203992   -2.7685271 
H    -1.0370342   -0.7173906   -3.6689602 
N     1.6319590   -1.9405761   -3.2455811 
H     1.0663527   -2.7400456   -1.3604585 
H     2.5318394   -1.4366414   -3.4163085 
H     1.8199699   -2.9569430   -3.4185186 
