24
Energy =
C     1.3405493    2.0151693    0.7520446 
C     0.8729299    2.8536920   -0.2008301 
C     0.6807935    2.4049261   -1.4620722 
C     1.6308062    0.7253527    0.4435095 
C     1.4586035    0.2703558   -0.8291263 
C     0.9728477    1.1175679   -1.7800492 
O     0.5798307    4.1755090    0.1191005 
H     1.3926605    4.7665511   -0.0145069 
H     0.7951786    0.7652694   -2.7944746 
H     1.9967760    0.0617671    1.2228193 
H     1.4712283    2.3844152    1.7636478 
H     0.2798359    3.0821840   -2.2088404 
C     1.7644377   -1.1728232   -1.1706137 
C     0.5027760   -2.0646544   -1.0905543 
H     2.5383566   -1.5647691   -0.4732837 
H     2.2134147   -1.2372100   -2.1875971 
C    -0.4933189   -1.7426455   -2.2022283 
O    -1.5595404   -0.8974272   -1.9249144 
O    -0.3027338   -2.1603153   -3.5184914 
H     0.4272663   -2.8517414   -3.5785848 
N     0.8949909   -3.4881839   -1.0874132 
H    -0.0519167   -1.8394342   -0.1468299 
H     1.6590445   -3.6739888   -1.7795687 
H     1.2741869   -3.7452892   -0.1443233 
