24
Energy =
C     2.1320460    2.3139870   -0.8086368 
C     0.9186820    2.9143961   -0.8287923 
C    -0.2003773    2.1949366   -0.5865859 
C     2.2410395    0.9911233   -0.5245387 
C     1.1252813    0.2589599   -0.2683522 
C    -0.1176882    0.8486980   -0.3427754 
O     0.8242471    4.2772539   -1.0950542 
H     0.8869579    4.8146385   -0.2378445 
H    -1.1271575    0.1404171    0.0220323 
H     3.2232212    0.5269490   -0.5056105 
H     3.0164036    2.9060394   -1.0182026 
H    -1.1654155    2.6866049   -0.6021170 
C     1.1901231   -1.2240155    0.0427604 
C     0.4226746   -2.0699037   -1.0062557 
H     0.7459782   -1.3922805    1.0477141 
H     2.2439634   -1.5768985    0.0922051 
C    -0.9486804   -1.4937356   -1.3600687 
O    -1.2436706   -0.1401844   -1.0960620 
O    -1.8711958   -2.2601810   -2.0482462 
H    -2.6721464   -1.6809676   -2.2669602 
N     1.2756418   -2.2196015   -2.1975151 
H     0.2192363   -3.0776214   -0.5758197 
H     0.7851743   -2.8497954   -2.8777922 
H     1.3468838   -1.2895396   -2.6785730 
