24
Energy =
C     2.3555091    2.2675029   -1.5587933 
C     1.3585202    2.6291870   -2.3904591 
C     0.2539657    1.8490665   -2.4869717 
C     2.2586147    1.1329554   -0.8229057 
C     1.1536753    0.3293428   -0.9037194 
C     0.1482109    0.7110056   -1.7534903 
O     1.4944514    3.8059511   -3.1339509 
H     0.7023091    4.0094943   -3.7338979 
H    -0.7549266    0.1545452   -1.8919855 
H     3.0829380    0.8731613   -0.1619894 
H     3.2346463    2.8994733   -1.4890134 
H    -0.5530349    2.1327441   -3.1545271 
C     1.1770968   -0.9244352   -0.0108939 
C     0.0645226   -2.0352478    0.0800028 
H     1.3736652   -0.5484284    1.0197287 
H     2.1160603   -1.4589044   -0.2797625 
C    -0.4783271   -2.1973942    1.5009167 
O     0.4059935   -2.3153140    2.5678938 
O    -1.8438976   -2.2983795    1.7434681 
H    -1.9961374   -2.4203441    2.7365460 
N    -0.9988220   -1.9084189   -0.9277668 
H     0.5776939   -3.0099001   -0.0973136 
H    -1.4797997   -2.8349077   -1.0289349 
H    -1.7455286   -1.2752718   -0.5498333 
