24
Energy =
C     0.2567033    1.6403507    1.0364348 
C     0.4588255    2.7341045    0.2666148 
C     1.0851143    2.6155576   -0.9262017 
C     0.6910291    0.4234842    0.6201116 
C     1.3357487    0.2975272   -0.5738095 
C     1.5256427    1.4023962   -1.3479240 
O     0.0138349    3.9798804    0.6975624 
H     0.7318310    4.4502185    1.2371284 
H     2.0144170    1.3198068   -2.3163012 
H     0.5154661   -0.4481549    1.2462473 
H    -0.2614950    1.7477642    1.9833243 
H     1.2198303    3.4976801   -1.5430570 
C     1.8069460   -1.0651368   -1.0384062 
C     0.6760937   -1.8809951   -1.7099763 
H     2.1892674   -1.6233241   -0.1535071 
H     2.6760599   -0.9710145   -1.7270218 
C     0.5231390   -1.5638770   -3.1989783 
O     0.5334104   -0.2504220   -3.6441679 
O     0.3025455   -2.5742778   -4.1261424 
H     1.1763247   -3.0353583   -4.3279104 
N     0.9260272   -3.3126304   -1.4512490 
H    -0.3043868   -1.6038882   -1.2556302 
H     0.1344425   -3.8765348   -1.8489904 
H     1.7917829   -3.6194117   -1.9548198 
