24
Energy =
C     1.3173568    2.8566941   -1.2342345 
C    -0.0194949    3.0772031   -1.2581743 
C    -0.8664250    2.0327864   -1.1619257 
C     1.7969700    1.5942125   -1.1139420 
C     0.9532670    0.5213060   -1.0111009 
C    -0.3943681    0.7645852   -1.0420491 
O    -0.5504940    4.3644969   -1.3830244 
H     0.1495982    5.0961941   -1.4410226 
H    -1.1339317   -0.0058621   -0.9727765 
H     2.8752831    1.4490505   -1.0997122 
H     2.0083556    3.6894794   -1.3119900 
H    -1.9338806    2.2274171   -1.1820370 
C     1.6334667   -0.8542910   -0.8912058 
C     0.9125374   -2.2374839   -0.6855507 
H     2.3781410   -0.7355418   -0.0694465 
H     2.2600595   -0.9637560   -1.8047792 
C     1.5287386   -2.9996745    0.4862566 
O     1.2685330   -2.6187664    1.7986855 
O     2.3918824   -4.0617741    0.2433780 
H     2.7105000   -4.4386871    1.1269576 
N    -0.5544935   -2.1415913   -0.5799210 
H     1.1620682   -2.8750060   -1.5688552 
H    -0.9769230   -2.3542882   -1.5153212 
H    -0.9349618   -2.8693206    0.0746155 
