24
Energy =
C    -0.5816750    2.0056143   -0.9794955 
C     0.3177127    3.0118716   -0.9226042 
C     1.6289060    2.7364026   -0.7524275 
C    -0.1751076    0.7161054   -0.8591386 
C     1.1509550    0.4212503   -0.6918252 
C     2.0454100    1.4507309   -0.6307454 
O    -0.1058877    4.3313648   -1.0450325 
H    -0.3317746    4.7220201   -0.1369134 
H     3.1055380    1.2525060   -0.4888603 
H    -0.9312934   -0.0555537   -0.9093650 
H    -1.6302976    2.2421076   -1.1254054 
H     2.3411724    3.5540066   -0.7170930 
C     1.6817391   -0.9995070   -0.5164366 
C     0.7657007   -2.1559901   -1.0086947 
H     1.9197497   -1.1568047    0.5592079 
H     2.6569714   -1.0540235   -1.0528502 
C     1.5852668   -3.3161265   -1.5700453 
O     2.5388111   -3.0834771   -2.5525708 
O     1.3491836   -4.6240665   -1.1662753 
H     1.8957791   -4.8059140   -0.3375784 
N    -0.0864643   -2.5990477    0.1127799 
H     0.1448804   -1.8246117   -1.8714265 
H    -0.6981444   -1.8194998    0.4434567 
H    -0.7288297   -3.3590283   -0.2212072 
