24
Energy =
C     0.8361961    2.2918573   -2.1825053 
C     0.3901020    3.0025801   -1.1216271 
C     0.3905590    2.4360241    0.1147837 
C     1.2898827    1.0234615   -2.0191935 
C     1.3063953    0.4570549   -0.7814394 
C     0.8430778    1.1679949    0.2837428 
O    -0.0617816    4.3101491   -1.3292278 
H    -0.4148939    4.7616688   -0.4925043 
H     0.8176084    0.7200678    1.2738820 
H     1.6241462    0.4608196   -2.8866323 
H     0.8163506    2.7485731   -3.1659425 
H     0.0222702    2.9923894    0.9699139 
C     1.7811999   -0.9717921   -0.6011178 
C     0.6661085   -2.0494674   -0.7403890 
H     2.2613151   -1.0751622    0.3973232 
H     2.6047352   -1.1743784   -1.3223581 
C    -0.7331219   -1.4893526   -1.0072582 
O    -1.5409798   -1.1222185    0.0601787 
O    -1.1903463   -1.2794047   -2.3033678 
H    -1.4701820   -2.1626574   -2.7017187 
N     1.0883483   -3.0427737   -1.7458507 
H     0.5790782   -2.5672079    0.2435147 
H     0.4185976   -3.8485604   -1.7430992 
H     1.0448415   -2.6102652   -2.7009154 
