24
Energy =
C    -0.5016475    2.2347845   -1.3298360 
C     0.1421804    3.1013755   -0.5212638 
C     1.1776712    2.6770548    0.2304632 
C    -0.1190743    0.9317891   -1.3860775 
C     0.9266144    0.4781000   -0.6261816 
C     1.5669760    1.3789095    0.1819877 
O    -0.2563385    4.4329656   -0.4705147 
H    -0.9634896    4.5685548    0.2436629 
H     2.4057257    1.0659720    0.8004259 
H    -0.6747333    0.3056602   -2.0527216 
H    -1.3250215    2.5972287   -1.9372178 
H     1.6945666    3.3864345    0.8682856 
C     1.4653163   -0.9616317   -0.5803667 
C     0.9446471   -2.1820328   -1.4236365 
H     1.4383003   -1.2538415    0.4951438 
H     2.5525991   -0.8791788   -0.8063282 
C     0.4987326   -3.3332222   -0.5228353 
O     1.3650976   -4.3849119   -0.2540172 
O    -0.7467616   -3.3114136    0.0918450 
H    -0.8386014   -4.1462432    0.6567909 
N    -0.0651360   -1.8369712   -2.4380575 
H     1.8331441   -2.5938321   -1.9614011 
H    -0.0161439   -2.5399390   -3.2141424 
H    -1.0226714   -1.9604164   -2.0212786 
