24
Energy =
C     2.2403879    2.2787940   -1.0445162 
C     1.0531973    2.9291122   -1.0234158 
C    -0.0735695    2.2767109   -0.6606615 
C     2.3137996    0.9684111   -0.6984213 
C     1.1885689    0.2994320   -0.3331348 
C    -0.0317179    0.9423416   -0.3527590 
O     0.9951931    4.2781226   -1.3591255 
H     0.8538271    4.3901863   -2.3571326 
H    -1.0517443    0.3121088    0.1154240 
H     3.2763187    0.4644538   -0.7134413 
H     3.1343781    2.8232415   -1.3290189 
H    -1.0134416    2.8143358   -0.6246380 
C     1.2171119   -1.1690689    0.0492686 
C     0.3328044   -2.0309831   -0.8882733 
H     0.8517994   -1.2673530    1.0946496 
H     2.2559837   -1.5665116    0.0315594 
C    -1.0540416   -1.4265597   -1.1100704 
O    -1.2409474   -0.0398972   -0.9698343 
O    -2.1075031   -2.2025716   -1.5567340 
H    -1.9821949   -2.3961292   -2.5390852 
N     1.0582406   -2.2345004   -2.1538041 
H     0.1586530   -3.0188303   -0.4012810 
H     0.5324022   -2.9189206   -2.7467649 
H     1.0790622   -1.3295821   -2.6856723 
