24
Energy =
C    -0.0208716    1.1070091    1.3953832 
C    -0.0745783    2.3245456    0.8075849 
C     0.4964231    2.5172485   -0.4036506 
C     0.6178422    0.0796299    0.7794522 
C     1.2130705    0.2716972   -0.4308716 
C     1.1392419    1.4957275   -1.0241673 
O    -0.7270976    3.3756231    1.4444442 
H    -0.0843442    3.8936289    2.0329397 
H     1.5735426    1.6539686   -2.0082892 
H     0.6387966   -0.8973065    1.2555109 
H    -0.5024122    0.9605550    2.3563286 
H     0.4222843    3.4903423   -0.8766231 
C     1.9059051   -0.8766907   -1.1377724 
C     1.0108705   -1.6304175   -2.1828327 
H     2.2609324   -1.6107786   -0.3801245 
H     2.8430598   -0.4866619   -1.5875838 
C    -0.4402725   -1.1648935   -2.2278538 
O    -0.8102875   -0.0211808   -2.9303177 
O    -1.4077050   -1.8561112   -1.5076249 
H    -2.2958516   -1.3893024   -1.6390628 
N     1.6090144   -1.6156733   -3.5389068 
H     0.9247756   -2.6876576   -1.8364521 
H     2.5304379   -1.1262366   -3.5957089 
H     1.7579341   -2.5951277   -3.8783333 
