24
Energy =
C    -1.1698165    1.5105055   -0.3269297 
C    -0.6027002    2.7133655   -0.0576536 
C     0.7337688    2.8579272   -0.1679364 
C    -0.4011347    0.4565798   -0.7041091 
C     0.9576726    0.5931259   -0.8193733 
C     1.5096456    1.8116786   -0.5446680 
O    -1.3690310    3.8157904    0.3347471 
H    -2.3651732    3.6312088    0.3845933 
H     2.5839843    1.9611289   -0.6254425 
H    -0.9201084   -0.4666160   -0.9023394 
H    -2.2443147    1.3874953   -0.2417584 
H     1.1750201    3.8247937    0.0489132 
C     1.9241222   -0.5197000   -1.2360718 
C     1.3690794   -1.9492998   -1.5925214 
H     2.6916426   -0.5844911   -0.4368056 
H     2.4933247   -0.1265908   -2.1096728 
C     1.6039603   -2.2833619   -3.0616019 
O     0.6494502   -1.9287427   -4.0066549 
O     2.8060522   -2.8297101   -3.4954034 
H     3.4800754   -2.0899825   -3.6110790 
N     1.9482048   -2.9995610   -0.7220700 
H     0.2721478   -2.0104293   -1.5107883 
H     2.6258795   -2.6487187   -0.0086097 
H     1.1880833   -3.4923746   -0.1962486 
