24
Energy =
C     1.2678281    2.6044779   -0.0694805 
C    -0.0466930    2.7921644    0.1851423 
C    -0.8988765    1.7433913    0.1518585 
C     1.7398074    1.3614461   -0.3438857 
C     0.8917429    0.2937431   -0.3681419 
C    -0.4342789    0.4953655   -0.1155757 
O    -0.5241741    4.0660165    0.4742975 
H    -0.5147832    4.2396516    1.4731239 
H    -1.1338184   -0.3364290   -0.1698236 
H     2.7994405    1.2342009   -0.5492563 
H     1.9361408    3.4594175   -0.0582416 
H    -1.9557086    1.9192140    0.3253439 
C     1.4269553   -1.1038459   -0.6493853 
C     0.8415312   -1.8175944   -1.9115855 
H     1.2279890   -1.7345791    0.2445679 
H     2.5365718   -1.0685704   -0.7234118 
C    -0.1244255   -0.9728202   -2.7375234 
O    -1.4876835   -1.1848135   -2.5739305 
O     0.2885391    0.1066977   -3.5143541 
H     1.2907793    0.1969171   -3.5373060 
N     1.9240347   -2.3865729   -2.7347145 
H     0.2033753   -2.6650328   -1.5655354 
H     2.5823513   -1.6363984   -3.0493444 
H     2.4737324   -3.0792199   -2.1740225 
