24
Energy =
C    -0.3093849    2.0369973   -2.1146830 
C    -1.4089505    1.9617396   -1.3311014 
C    -1.3687713    1.2308223   -0.1848371 
C     0.8320835    1.3945904   -1.7608924 
C     0.8808504    0.6689541   -0.6095557 
C    -0.2303341    0.5838005    0.1725180 
O    -2.5647713    2.6428302   -1.7261396 
H    -3.3503283    2.5239192   -1.0957729 
H    -0.2158411   -0.0029434    1.0877369 
H     1.7029549    1.4542300   -2.4112815 
H    -0.3573321    2.6134379   -3.0322098 
H    -2.2478261    1.1598947    0.4468366 
C     2.1440078   -0.0720468   -0.2242680 
C     2.1597105   -1.5160085   -0.7851010 
H     2.2267715   -0.1019761    0.8853510 
H     3.0405539    0.4793103   -0.5893479 
C     2.1150441   -1.5315999   -2.3105195 
O     1.1870371   -2.3250779   -2.9700707 
O     2.9975260   -0.7576247   -3.0574135 
H     3.8846053   -1.2343700   -3.1242411 
N     3.3066501   -2.2794169   -0.2316939 
H     1.2211683   -2.0283935   -0.4683792 
H     3.9739874   -2.5785791   -0.9827289 
H     3.8716868   -1.7203529    0.4504851 
