24
Energy =
C     1.8824063    2.1785276   -2.0656304 
C     0.9565229    2.9550177   -1.4578524 
C     0.2011321    2.4493633   -0.4563111 
C     2.0614101    0.8932059   -1.6680761 
C     1.3078098    0.3758816   -0.6565186 
C     0.3757569    1.1657641   -0.0518386 
O     0.7757639    4.2714941   -1.8693106 
H     1.3842090    4.8973306   -1.3528835 
H    -0.2359929    0.7780746    0.7583700 
H     2.8053494    0.2790993   -2.1686634 
H     2.4728522    2.5936034   -2.8756733 
H    -0.5462454    3.0787965    0.0152275 
C     1.5006779   -1.0639313   -0.2184366 
C     0.5395009   -2.0632663   -0.9150517 
H     1.3719980   -1.1351055    0.8857919 
H     2.5500292   -1.3795861   -0.4097333 
C    -0.9310268   -1.8577355   -0.5212170 
O    -1.2446365   -1.5575632    0.7995450 
O    -1.9819076   -2.0584699   -1.4150200 
H    -1.6401006   -2.3809998   -2.3074886 
N     0.7642608   -2.0659223   -2.3758976 
H     0.7779283   -3.0795658   -0.5254280 
H     0.5327169   -1.1288375   -2.7852736 
H     1.7725164   -2.2632189   -2.5833017 
