24
Energy =
C     1.1692301    2.0380877    1.4470485 
C    -0.0301580    2.5609546    1.1241126 
C    -0.7268209    2.0399288    0.0842765 
C     1.6781456    0.9990480    0.7405717 
C     0.9917448    0.4534115   -0.3103613 
C    -0.2242208    0.9992748   -0.6295566 
O    -0.5223486    3.6339309    1.8746982 
H    -1.4347339    3.9624466    1.5777270 
H    -0.8380537    0.6504212   -1.4336202 
H     2.6495550    0.6037224    1.0295597 
H     1.7186888    2.4623045    2.2806466 
H    -1.6930270    2.4554958   -0.1817496 
C     1.6928682   -0.7145674   -1.0288965 
C     1.1079667   -1.5758777   -2.2134363 
H     1.9925591   -1.4109769   -0.2125454 
H     2.6623068   -0.3044569   -1.3911417 
C     1.2490952   -3.0867884   -1.9470211 
O     0.9846987   -3.6049452   -0.6839435 
O     1.5881752   -3.9753556   -2.9695940 
H     1.6853742   -3.5146864   -3.8616843 
N    -0.2690556   -1.2223890   -2.5880943 
H     1.7631236   -1.3749914   -3.0933066 
H    -0.2345749   -0.4694290   -3.3165362 
H    -0.7555096   -2.0308573   -3.0468193 
