24
Energy =
C     0.2802069    1.4741382    1.2498800 
C    -0.5979133    2.2439766    0.5675190 
C    -0.6024959    2.2294759   -0.7848080 
C     1.1534447    0.6790981    0.5808219 
C     1.1525327    0.6544231   -0.7817442 
C     0.2678836    1.4372802   -1.4613022 
O    -1.4920893    3.0571649    1.2560342 
H    -2.3642258    2.5666554    1.4222117 
H     0.2501225    1.4309347   -2.5474630 
H     1.8456231    0.0576753    1.1442167 
H     0.2761099    1.4984240    2.3343858 
H    -1.3073991    2.8587382   -1.3171731 
C     2.1153548   -0.2450345   -1.5306038 
C     1.5662766   -1.6754829   -1.7598448 
H     3.0735754   -0.3113472   -0.9660695 
H     2.3794951    0.2098883   -2.5102745 
C     1.3135035   -2.4117328   -0.4506731 
O     2.3632581   -3.0712165    0.1792184 
O     0.0753035   -2.3636463    0.1810322 
H     0.1234397   -2.9150293    1.0267990 
N     0.3830862   -1.6626936   -2.6401329 
H     2.3618843   -2.2656219   -2.2678125 
H    -0.4328238   -1.2424468   -2.1337512 
H     0.5701721   -1.0893261   -3.4947537 
