24
Energy =
C     0.4581186    2.3256555   -1.7997374 
C     0.0780464    2.8653183   -0.6194537 
C     0.2988737    2.1804957    0.5344425 
C     1.0563450    1.1082405   -1.8385975 
C     1.2791157    0.4173222   -0.6866514 
C     0.8968549    0.9624606    0.5016718 
O    -0.5348247    4.1225953   -0.6203438 
H    -0.7937024    4.4570006    0.3014379 
H     1.0663676    0.4304934    1.4338703 
H     1.3557443    0.6920000   -2.7974546 
H     0.2768630    2.8815882   -2.7133452 
H    -0.0020894    2.6057169    1.4858659 
C     1.9405346   -0.9439044   -0.7357758 
C     0.9764040   -2.0419744   -1.2535444 
H     2.3366557   -1.2321882    0.2635567 
H     2.8266294   -0.8743463   -1.4084643 
C     1.7493692   -3.2923806   -1.6538317 
O     2.0946299   -3.4946201   -2.9822985 
O     2.1921381   -4.1950951   -0.6944427 
H     3.0103041   -3.8190656   -0.2395020 
N    -0.1060904   -2.3203347   -0.2770794 
H     0.5046340   -1.6947434   -2.2023734 
H    -0.0738706   -3.3142657    0.0608503 
H    -0.0408746   -1.7226659    0.5779178 
