24
Energy =
C    -0.4965907    1.1584676    1.2286010 
C    -1.0301471    2.0912002    0.4073738 
C    -0.5242031    2.2522921   -0.8445188 
C     0.5420958    0.3899979    0.8142028 
C     1.0591420    0.5531235   -0.4354605 
C     0.5132744    1.4851347   -1.2648299 
O    -2.0945644    2.8701231    0.8736394 
H    -2.4568727    3.5244970    0.1890330 
H     0.8975313    1.6136573   -2.2730990 
H     0.9460213   -0.3632794    1.4860896 
H    -0.9163415    1.0298785    2.2202331 
H    -0.9510157    2.9908679   -1.5142333 
C     2.2062260   -0.3179004   -0.9101190 
C     1.7186950   -1.5799759   -1.6538210 
H     2.8397892   -0.6093679   -0.0434157 
H     2.8669905    0.2717244   -1.5831127 
C     0.8319385   -2.4544152   -0.7595882 
O    -0.5375055   -2.5304323   -0.9814298 
O     1.3755691   -3.1802666    0.3020385 
H     2.3761959   -3.0754256    0.3680645 
N     1.0540368   -1.1704044   -2.9056154 
H     2.6050280   -2.2070579   -1.9036027 
H     1.7775028   -0.8929919   -3.6091929 
H     0.5302462   -1.9815347   -3.3166476 
