24
Energy =
C    -0.8790880    1.5429584    0.3609159 
C    -0.0858554    2.6163042    0.1006847 
C     1.1639919    2.4229099   -0.3785124 
C    -0.4178670    0.2851385    0.1440653 
C     0.8439781    0.0890672   -0.3291760 
C     1.6312033    1.1674651   -0.5951482 
O    -0.5300536    3.9250599    0.3164736 
H    -1.4813422    3.9888712    0.6616183 
H     2.6360807    1.0358743   -0.9911347 
H    -1.0657694   -0.5629204    0.3500806 
H    -1.8844127    1.6890953    0.7404759 
H     1.7844438    3.2867838   -0.5914016 
C     1.3508550   -1.3132459   -0.5911096 
C     0.9117527   -1.8366176   -1.9735695 
H     0.9781756   -1.9944712    0.2043189 
H     2.4630984   -1.3519724   -0.5219806 
C     1.5443906   -1.0341562   -3.1062136 
O     2.8857274   -0.6713923   -3.0632611 
O     0.7907476   -0.6961091   -4.2225003 
H     0.7233170   -1.5017140   -4.8262696 
N     1.2602639   -3.2651546   -2.0608526 
H    -0.1916947   -1.7132119   -2.0810378 
H     0.6612337   -3.8101201   -1.3965650 
H     1.0268023   -3.6256713   -3.0167989 
