24
Energy =
C     1.1530597    2.6252857   -1.1326862 
C    -0.1602906    2.8411695   -0.8911978 
C    -0.9292238    1.8462909   -0.3926847 
C     1.7018743    1.4092464   -0.8826795 
C     0.9335518    0.4022449   -0.3812246 
C    -0.3882535    0.6272947   -0.1403050 
O    -0.7196853    4.0886906   -1.1502787 
H    -1.0892337    4.1225678   -2.0944307 
H    -1.0201004   -0.1656178    0.2510159 
H     2.7553664    1.2491527   -1.0954865 
H     1.7579319    3.4325292   -1.5312336 
H    -1.9793091    2.0359348   -0.1998194 
C     1.5306276   -0.9649827   -0.1305041 
C     1.2406550   -1.9446332   -1.2836217 
H     1.1169955   -1.3762732    0.8164511 
H     2.6302374   -0.8967340    0.0293543 
C     1.8550064   -1.4688923   -2.5973928 
O     1.0962339   -0.7151780   -3.4830104 
O     3.1830310   -1.7333099   -2.9067697 
H     3.7643592   -1.0383513   -2.4657820 
N     1.7401792   -3.2724127   -0.8869057 
H     0.1401812   -1.9967946   -1.4593225 
H     1.0791476   -3.6971843   -0.1949642 
H     1.7434156   -3.9116082   -1.7191272 
