24
Energy =
C     1.1204960    2.5881493   -0.6562278 
C     0.3676116    2.5761372    0.4671714 
C     0.0913726    1.4046631    1.0845164 
C     1.5973482    1.4254544   -1.1700560 
C     1.3215583    0.2409937   -0.5561717 
C     0.5619904    0.2376745    0.5750869 
O    -0.1181318    3.7698511    0.9910608 
H    -1.0330704    3.9817223    0.6076070 
H     0.3271961   -0.6975324    1.0780686 
H     2.1825611    1.4467359   -2.0872979 
H     1.3320850    3.5352704   -1.1410203 
H    -0.5079431    1.4114478    1.9885946 
C     1.8352023   -1.0645299   -1.1274976 
C     0.7727702   -1.8023829   -1.9762105 
H     2.1476359   -1.7180513   -0.2808967 
H     2.7578260   -0.9029608   -1.7287258 
C     0.6730925   -1.2341797   -3.4047132 
O     0.5133267    0.1347010   -3.5718316 
O     0.6903108   -2.0237533   -4.5562744 
H     0.7082557   -3.0110576   -4.3699055 
N     1.0796812   -3.2442569   -1.9092371 
H    -0.2343790   -1.6332983   -1.5281304 
H     0.2766216   -3.8055333   -2.2811824 
H     1.9398551   -3.4654831   -2.4676906 
