24
Energy =
C    -0.8238043    2.0615283   -0.9016812 
C    -0.9969608    1.9511894    0.4354281 
C    -0.1515001    1.1901846    1.1671295 
C     0.1943849    1.4051414   -1.5137596 
C     1.0522263    0.6382516   -0.7843369 
C     0.8698319    0.5314924    0.5625134 
O    -2.0416270    2.6249744    1.0592974 
H    -2.8775550    2.0506034    1.0778560 
H     1.5311037   -0.0907628    1.1618739 
H     0.3145846    1.4912888   -2.5904452 
H    -1.5071586    2.6780150   -1.4758605 
H    -0.3024652    1.1111626    2.2386552 
C     2.1744064   -0.1171710   -1.4680682 
C     1.7321893   -1.5068787   -1.9763478 
H     3.0327380   -0.2368545   -0.7678783 
H     2.5641768    0.4805837   -2.3211863 
C     1.2722591   -2.4010648   -0.8242242 
O     2.2282397   -3.1090739   -0.1073460 
O    -0.0555392   -2.4549408   -0.4004361 
H    -0.6433542   -1.8762904   -0.9829685 
N     0.7106038   -1.3535780   -3.0276964 
H     2.6246969   -2.0155901   -2.4104243 
H     1.1363546   -0.8643286   -3.8510026 
H     0.4415713   -2.3050185   -3.3749809 
