24
Energy =
C    -0.7214481    0.7991696    1.1073693 
C    -1.6142325    1.3727149    0.2688744 
C    -1.2612216    1.6207216   -1.0205857 
C     0.5220218    0.4748789    0.6713198 
C     0.8820135    0.7220166   -0.6185283 
C    -0.0196764    1.2962703   -1.4626526 
O    -2.8841803    1.6984873    0.7563717 
H    -3.5013136    2.1082489    0.0640976 
H     0.2462245    1.4957649   -2.4970709 
H     1.2219235    0.0085245    1.3607888 
H    -1.0162523    0.5989251    2.1318993 
H    -1.9717161    2.0776086   -1.7007303 
C     2.2654743    0.3471237   -1.1121638 
C     2.3710914   -1.1259041   -1.5823506 
H     3.0059517    0.5289597   -0.3007534 
H     2.5690477    1.0218263   -1.9432224 
C     2.1041750   -2.1187790   -0.4471675 
O     0.8397386   -2.6741126   -0.2812165 
O     3.0917116   -2.4184861    0.4941965 
H     3.9608609   -1.9440071    0.3004252 
N     1.5150842   -1.3699206   -2.7578257 
H     3.4233736   -1.3070635   -1.8952436 
H     0.5033427   -1.3088123   -2.4895801 
H     1.6957831   -0.6506526   -3.4964072 
