24
Energy =
C    -0.3377305    2.4112984   -0.9501659 
C     0.6103156    3.1654416   -0.3582728 
C     1.7407512    2.5890059    0.0950091 
C    -0.1586105    1.0734109   -1.1028023 
C     0.9852969    0.4646862   -0.6536198 
C     1.9302011    1.2545099   -0.0521588 
O     0.4181039    4.5351229   -0.2082553 
H     0.7777434    5.0396116   -1.0111754 
H     2.8537396    0.8196689    0.3249926 
H    -0.9608456    0.5583254   -1.5821343 
H    -1.2477228    2.8894953   -1.2977784 
H     2.4903027    3.2046455    0.5812970 
C     1.3436511   -1.0312266   -0.7544875 
C     0.4773708   -2.2110604   -1.3539727 
H     1.6394166   -1.3207371    0.2799168 
H     2.3097466   -1.0601800   -1.3075799 
C     0.3341397   -3.3944802   -0.3885773 
O     0.2607531   -3.1773152    0.9831507 
O     0.2310620   -4.7034366   -0.8594682 
H     0.1166221   -4.7312163   -1.8620420 
N    -0.8337479   -1.8417839   -1.8890292 
H     1.0661029   -2.6285889   -2.2034020 
H    -1.4549015   -1.4684451   -1.1314203 
H    -0.7401500   -1.2119715   -2.7192038 
