24
Energy =
C    -0.4037816    2.3029718   -0.4007176 
C     0.1980937    2.8708364   -1.4705125 
C     1.2565207    2.2634826   -2.0543264 
C     0.0489869    1.1204794    0.0875173 
C     1.1173330    0.5038509   -0.4919973 
C     1.7148111    1.0799473   -1.5723588 
O    -0.2682705    4.0833649   -1.9665905 
H    -0.9879253    3.9321314   -2.6653109 
H     2.5553480    0.5932534   -2.0606471 
H    -0.4501556    0.6676750    0.9394097 
H    -1.2491590    2.8035903    0.0589224 
H     1.7300870    2.7320927   -2.9106315 
C     1.6104720   -0.8306469    0.0325274 
C     0.9605254   -2.0755489   -0.6462999 
H     1.4765056   -0.8603526    1.1372363 
H     2.7136005   -0.8834355   -0.1075978 
C     0.3256908   -3.0116398    0.3745750 
O     1.0204919   -4.1308070    0.8092048 
O    -0.9118579   -2.7249016    0.9384105 
H    -0.7987830   -2.0082886    1.6375523 
N     0.0182121   -1.6900061   -1.7164069 
H     1.7818326   -2.6718806   -1.1094300 
H    -0.2580237   -2.5483534   -2.2512178 
H    -0.8676665   -1.3288526   -1.2878610 
