24
Energy =
C     0.5156204    2.2557948    0.5466017 
C     0.4945540    3.0003239   -0.5826893 
C     0.8736607    2.4543931   -1.7609792 
C     0.9310288    0.9644549    0.5038471 
C     1.3345821    0.4132903   -0.6754524 
C     1.2915287    1.1636725   -1.8116413 
O     0.0714520    4.3243703   -0.5343086 
H     0.8523243    4.9452328   -0.3537560 
H     1.5752270    0.7310281   -2.7676020 
H     0.9232775    0.3700382    1.4139937 
H     0.1858759    2.6987188    1.4803545 
H     0.8272191    3.0556618   -2.6628366 
C     1.7717583   -1.0376824   -0.7326421 
C     0.6115806   -2.0560868   -0.9736370 
H     2.2865013   -1.2996484    0.2185114 
H     2.5574665   -1.1452686   -1.5131464 
C    -0.7826062   -1.4380338   -1.0002287 
O    -1.2967084   -0.8811034   -2.1680860 
O    -1.5170953   -1.3395517    0.1763440 
H    -2.3993710   -0.8899035   -0.0329222 
N     0.8718725   -2.8543351   -2.1848901 
H     0.5816418   -2.7549305   -0.1067934 
H     0.9044250   -2.2230663   -3.0215034 
H     1.7977213   -3.3365967   -2.1045974 
