24
Energy =
C     1.9931359    2.1401285   -2.1433929 
C     0.8760499    2.8718934   -1.9609258 
C    -0.2034449    2.3056205   -1.3677611 
C     2.0409530    0.8470819   -1.7384755 
C     0.9638545    0.2535069   -1.1383617 
C    -0.1644894    1.0110012   -0.9587709 
O     0.8639837    4.2021127   -2.3915085 
H    -0.0108979    4.6859036   -2.2200074 
H    -1.0590686    0.6424438   -0.5015041 
H     2.9597415    0.2872881   -1.9013833 
H     2.8514116    2.6036860   -2.6188739 
H    -1.1063917    2.8884911   -1.2178570 
C     1.1588798   -1.2165520   -0.7263964 
C     0.0824675   -2.1513350   -0.0632053 
H     2.0723000   -1.2319577   -0.0885061 
H     1.4815560   -1.7411812   -1.6547339 
C     0.5846851   -2.7406524    1.2522332 
O     1.2365253   -3.9653127    1.2542255 
O     0.4841756   -2.0280886    2.4405648 
H     1.2294167   -1.3488145    2.4797236 
N    -1.2538184   -1.5512452    0.0677922 
H    -0.0157557   -3.0432221   -0.7288731 
H    -1.9646476   -2.3188772    0.1395926 
H    -1.3166890   -1.0424475    0.9842815 
