24
Energy =
C     1.4460047    2.5651473   -1.0110699 
C     0.1461684    2.8941754   -0.8319045 
C    -0.7429288    1.9516298   -0.4442405 
C     1.8649087    1.2928718   -0.7894324 
C     0.9773879    0.3405308   -0.3876308 
C    -0.3323249    0.6771762   -0.2215179 
O    -0.2779046    4.2011243   -1.0522333 
H    -0.2223931    4.7454556   -0.1987551 
H    -1.0586177   -0.0709673    0.0850085 
H     2.9120192    1.0469814   -0.9401592 
H     2.1447065    3.3275842   -1.3385745 
H    -1.7847560    2.2265483   -0.3215346 
C     1.4305420   -1.0847686   -0.1547210 
C     1.0608054   -2.0137446   -1.3379453 
H     0.9495249   -1.4626222    0.7749098 
H     2.5286145   -1.1278698    0.0259519 
C     1.7226448   -1.5815424   -2.6410247 
O     0.9597961   -0.9890973   -3.6395398 
O     3.0937825   -1.7136304   -2.8318071 
H     3.5634063   -0.9473517   -2.3791414 
N     1.4006076   -3.4171669   -1.0197073 
H    -0.0366147   -1.9302333   -1.5236875 
H     1.8051816   -3.5372053   -0.0614741 
H     0.5420812   -4.0147298   -1.0716073 
