24
Energy =
C    -0.5050452    2.2092312   -0.8235192 
C     0.5104442    3.1073173   -0.7621289 
C     1.7804579    2.6741789   -0.6071194 
C    -0.2506973    0.8647091   -0.7653264 
C     1.0530047    0.4324617   -0.5741552 
C     2.0545582    1.3499774   -0.5084670 
O     0.2764714    4.4844032   -0.8392640 
H    -0.6946972    4.7315085   -0.9971745 
H     3.0856527    1.0295628   -0.3825674 
H    -1.2319328    0.0433783   -0.6544837 
H    -1.5287530    2.5499936   -0.9211792 
H     2.5785173    3.4072695   -0.5590116 
C     1.4055576   -1.0555610   -0.5044536 
C     0.2679419   -2.0584782   -0.8822180 
H     1.7703253   -1.2892123    0.5190805 
H     2.2591686   -1.2194422   -1.1994412 
C    -0.6444686   -1.4869141   -1.9690019 
O    -1.0922555   -0.1679843   -1.7819998 
O    -1.0477250   -2.1770160   -3.1062574 
H    -0.7559933   -3.1417736   -3.0869213 
N     0.8501353   -3.3633496   -1.2421039 
H    -0.3963904   -2.1963287    0.0008924 
H     1.4901514   -3.2497791   -2.0653476 
H     1.4298698   -3.7194720   -0.4457691 
