24
Energy =
C     1.4063156    2.5362200   -0.8325421 
C     0.2252125    2.8511467   -0.2368947 
C    -0.5197377    1.8742057    0.3278703 
C     1.8362747    1.2493073   -0.8569400 
C     1.0897610    0.2654850   -0.2830667 
C    -0.0961261    0.5853318    0.3044247 
O    -0.2467738    4.1668801   -0.1919352 
H     0.3607989    4.8384512   -0.6493125 
H    -0.7126481   -0.1869665    0.7571157 
H     2.7786881    1.0129194   -1.3469991 
H     2.0081547    3.3113482   -1.2948468 
H    -1.4616124    2.1387696    0.7955751 
C     1.5514412   -1.1757670   -0.3314353 
C     0.9411426   -1.9355748   -1.5348009 
H     1.2591638   -1.6817325    0.6157556 
H     2.6638463   -1.2261602   -0.3817529 
C     1.4011622   -1.3405173   -2.8732087 
O     2.7518046   -1.0805162   -3.0779883 
O     0.5085232   -1.0982542   -3.9173556 
H    -0.4286676   -1.4001333   -3.6977950 
N     1.2257503   -3.3874996   -1.4320458 
H    -0.1630844   -1.8085950   -1.4849165 
H     1.7788910   -3.7295263   -2.2564276 
H     1.8020353   -3.6285679   -0.5912434 
