24
Energy =
C     1.2882089    2.6679188    0.2730824 
C    -0.0132224    2.8428753   -0.0714691 
C    -0.6995690    1.8191156   -0.6225119 
C     1.8937709    1.4720096    0.0640450 
C     1.2102543    0.4320870   -0.4946287 
C    -0.0989693    0.6209555   -0.8363561 
O    -0.6685333    4.0616479    0.1296117 
H    -0.0881396    4.7791514    0.5503954 
H    -0.6936894   -0.1669470   -1.2739165 
H     2.9369543    1.3536809    0.3487350 
H     1.8482336    3.4838850    0.7173968 
H    -1.7403016    1.9712250   -0.8883672 
C     1.9667231   -0.8797839   -0.6931090 
C     1.2672195   -2.0771775   -1.4000857 
H     2.3249056   -1.2245378    0.3029202 
H     2.8830034   -0.6474141   -1.2818727 
C     0.2272708   -2.8008943   -0.5409267 
O     0.2154653   -4.1885083   -0.5018685 
O    -0.7141955   -2.1096896    0.2115869 
H    -0.2824005   -1.7978611    1.0688501 
N     0.7943059   -1.7352770   -2.7601715 
H     2.0607275   -2.8477540   -1.5344177 
H    -0.2509706   -1.7534709   -2.8255421 
H     1.1272527   -0.7923292   -3.0715967 
