24
Energy =
C     0.1091804    0.8145363    1.4911610 
C    -0.0370172    2.0840152    1.0474397 
C     0.4494871    2.4289258   -0.1747942 
C     0.7404901   -0.1128422    0.7275902 
C     1.2408763    0.2308616   -0.4909606 
C     1.0828893    1.5059886   -0.9415316 
O    -0.6914753    3.0113820    1.8648901 
H    -0.7836002    3.9330942    1.4517200 
H     1.4466398    1.7872292   -1.9265082 
H     0.8312299   -1.1322936    1.0936118 
H    -0.2931424    0.5482663    2.4626655 
H     0.3258580    3.4405751   -0.5457134 
C     1.9183357   -0.8075964   -1.3637202 
C     0.9688982   -1.4958541   -2.4055934 
H     2.3641915   -1.5952718   -0.7157126 
H     2.7993858   -0.3320111   -1.8434296 
C    -0.5005706   -1.0974464   -2.2792793 
O    -0.9853809    0.0534409   -2.8932653 
O    -1.3583793   -1.8573494   -1.4959547 
H    -2.2745395   -1.4276800   -1.5162557 
N     1.4862415   -1.3771549   -3.7945832 
H     0.9444219   -2.5827368   -2.1600648 
H     0.7931519   -0.8955348   -4.4189253 
H     2.3629798   -0.8139817   -3.8687665 
