24
Energy =
C     1.0823778    1.4467750    1.7462897 
C    -0.2752752    1.4481495    1.7575944 
C    -0.9503817    0.9633271    0.6934344 
C     1.7552555    0.9605221    0.6732284 
C     1.0823087    0.4575923   -0.4022533 
C    -0.2843923    0.4786836   -0.3847318 
O    -0.9995924    1.9467703    2.8457398 
H    -0.4217303    2.2688630    3.6142396 
H    -0.8737684    0.0990357   -1.2073542 
H     2.8422203    0.9761105    0.6858752 
H     1.6337782    1.8369638    2.5948588 
H    -2.0345598    0.9661097    0.7158016 
C     1.8987812   -0.0394828   -1.5952126 
C     1.2497591   -1.0996959   -2.5323168 
H     2.8306270   -0.5019441   -1.1938744 
H     2.2213109    0.8416443   -2.1910175 
C     0.5002818   -2.1994660   -1.7774408 
O     1.1798058   -2.8956253   -0.7862323 
O    -0.8142016   -2.5698391   -2.0657889 
H    -1.1904693   -2.0649562   -2.8527478 
N     0.4649127   -0.4484096   -3.6028499 
H     2.0766883   -1.6719845   -3.0161733 
H    -0.0782172    0.3657563   -3.2334959 
H     1.1198772   -0.0523954   -4.3184052 
