24
Energy =
C     1.1253561    2.5784104   -1.0406056 
C    -0.1716755    2.8038691   -0.7291032 
C    -0.9393277    1.7949189   -0.2576976 
C     1.6647347    1.3448579   -0.8659494 
C     0.9015104    0.3274752   -0.3779318 
C    -0.4083774    0.5579854   -0.0827774 
O    -0.7189324    4.0720905   -0.9000789 
H    -0.6244795    4.6207269   -0.0528866 
H    -1.0393404   -0.2451218    0.2888144 
H     2.7054157    1.1787986   -1.1308484 
H     1.7236624    3.3911270   -1.4381194 
H    -1.9822491    1.9863111   -0.0306964 
C     1.4890612   -1.0554676   -0.2008871 
C     1.1978362   -1.9695364   -1.4063568 
H     1.0690527   -1.5158584    0.7204037 
H     2.5878762   -1.0025508   -0.0311631 
C     1.8693748   -1.4585557   -2.6781862 
O     1.1539696   -0.6729510   -3.5712938 
O     3.2065215   -1.7276675   -2.9419581 
H     3.7769802   -1.0585078   -2.4502817 
N     1.6370916   -3.3320485   -1.0588221 
H     0.1016578   -1.9726364   -1.6149523 
H     0.9393151   -3.7635007   -0.4083449 
H     1.6421505   -3.9314655   -1.9201473 
