24
Energy =
C     0.9211854    2.5727378   -1.4142028 
C    -0.0937980    2.8053330   -0.5399062 
C    -0.4664074    1.8346445    0.3245365 
C     1.5590297    1.3748786   -1.4164924 
C     1.1885535    0.3987884   -0.5420686 
C     0.1665009    0.6341605    0.3257238 
O    -0.7686363    4.0301683   -0.5075361 
H    -0.4493113    4.6962729   -1.2025293 
H    -0.1533725   -0.1356581    1.0232085 
H     2.3635748    1.2055419   -2.1262119 
H     1.2228552    3.3431809   -2.1152938 
H    -1.2814425    2.0312447    1.0124527 
C     1.8762081   -0.9490887   -0.5553373 
C     1.0733649   -1.9924814   -1.3690197 
H     1.9915963   -1.3021301    0.4937252 
H     2.9095061   -0.8610517   -0.9597531 
C     0.9687193   -1.6253173   -2.8446227 
O    -0.2222453   -1.1218002   -3.3515158 
O     2.0744504   -1.7158087   -3.6841837 
H     2.6711730   -0.9183520   -3.5347945 
N     1.6687354   -3.3278097   -1.1892057 
H     0.0221502   -2.0223506   -0.9978334 
H     2.6529897   -3.3357389   -1.5514854 
H     1.6954257   -3.5808120   -0.1736067 
