24
Energy =
C     1.2849990    2.5479593   -0.9495493 
C     0.0174258    2.8160106   -0.5602717 
C    -0.7647013    1.8258620   -0.0725988 
C     1.7738379    1.2851118   -0.8580073 
C     0.9928795    0.2831396   -0.3659418 
C    -0.2833132    0.5602107    0.0217749 
O    -0.4809288    4.1114754   -0.6565406 
H    -0.9344264    4.2527893   -1.5528673 
H    -0.9254290   -0.2277628    0.4068810 
H     2.7896491    1.0817087   -1.1900464 
H     1.9018189    3.3512991   -1.3377506 
H    -1.7771435    2.0570499    0.2398746 
C     1.5224955   -1.1324577   -0.2912322 
C     1.1410940   -1.9563839   -1.5439466 
H     1.1173982   -1.6272446    0.6190311 
H     2.6318789   -1.1258972   -0.1830131 
C     1.7437873   -1.3531698   -2.8074832 
O     0.9212929   -0.8375098   -3.8013689 
O     3.1226989   -1.2930849   -2.9693362 
H     3.3206763   -0.8702909   -3.8675082 
N     1.5057346   -3.3834864   -1.3595739 
H     0.0374370   -1.9001024   -1.6888487 
H     2.2002562   -3.6903809   -2.0849182 
H     1.9710475   -3.5642064   -0.4394977 
