24
Energy =
C     2.1261640    1.6794708   -2.3102175 
C     1.6114020    2.8268532   -1.8123703 
C     0.8797650    2.8022011   -0.6749684 
C     1.9260815    0.5039292   -1.6611399 
C     1.2033938    0.4735433   -0.5076157 
C     0.6722003    1.6299158   -0.0214923 
O     1.8290298    4.0325016   -2.4729908 
H     2.6631574    4.4874388   -2.1202515 
H     0.0753286    1.6257614    0.8859354 
H     2.3312087   -0.4136258   -2.0810347 
H     2.6895743    1.7101663   -3.2363532 
H     0.4568601    3.7279716   -0.3010766 
C     0.9646391   -0.8428198    0.2022493 
C    -0.1749521   -1.7173220   -0.4137820 
H     0.7408964   -0.6552994    1.2759760 
H     1.9262786   -1.4034878    0.2172001 
C    -0.9671396   -1.0437881   -1.5444555 
O    -0.5831216   -1.2236290   -2.8690049 
O    -2.0489470   -0.2027359   -1.2728207 
H    -2.1924950   -0.0768466   -0.2844501 
N     0.3607101   -3.0242280   -0.8342924 
H    -0.9276745   -1.9146858    0.3815555 
H     1.0738753   -2.8865184   -1.5912087 
H     0.8325422   -3.5010788   -0.0300010 
