24
Energy =
C     0.7284217    0.7238879    1.7959091 
C     0.7888860    2.0238947    1.4261980 
C     1.1114499    2.3516389    0.1539628 
C     0.9999607   -0.2547300    0.8952407 
C     1.3356129    0.0678675   -0.3850747 
C     1.3842663    1.3787744   -0.7526291 
O     0.5075407    3.0238722    2.3514917 
H     1.3505677    3.3133751    2.8354498 
H     1.6380005    1.6557697   -1.7733138 
H     0.9409340   -1.2949786    1.2050356 
H     0.4546518    0.4754534    2.8158099 
H     1.1424389    3.3978299   -0.1315386 
C     1.6178035   -1.0163859   -1.4008416 
C     0.3909940   -1.2972363   -2.3014466 
H     1.9409613   -1.9555300   -0.8976106 
H     2.4829015   -0.7021601   -2.0309011 
C     0.7793551   -2.1777016   -3.4872913 
O     1.4195335   -1.5800101   -4.5653929 
O     0.6065039   -3.5614231   -3.5012826 
H     0.0711011   -3.8784378   -2.7091596 
N    -0.7248647   -1.8555768   -1.5102899 
H     0.0597294   -0.3434358   -2.7778069 
H    -0.3762956   -2.5575906   -0.8155630 
H    -1.1792698   -1.0881070   -0.9584500 
