24
Energy =
C     1.3139712    2.6845527   -1.3306411 
C     0.5474884    3.0143996   -0.2675785 
C     0.1215161    2.0537527    0.5821942 
C     1.6662207    1.3908957   -1.5424500 
C     1.2509489    0.4129023   -0.6853227 
C     0.4689783    0.7574203    0.3780417 
O     0.1855006    4.3405604   -0.0557018 
H     0.8656735    4.8092100    0.5328483 
H     0.1003182    0.0120704    1.0678339 
H     2.2767500    1.1472569   -2.4084765 
H     1.6361942    3.4642954   -2.0130878 
H    -0.5070141    2.3320171    1.4216668 
C     1.6436795   -1.0358605   -0.9440610 
C     0.5144882   -2.0129124   -1.4351099 
H     2.1610553   -1.4361810   -0.0465251 
H     2.4485778   -1.0498839   -1.7139970 
C     0.0791029   -3.1027437   -0.4403527 
O    -0.4094263   -4.2948817   -0.9563730 
O     0.0980626   -2.9601290    0.9475559 
H     0.5099399   -2.1043460    1.2607865 
N    -0.6324367   -1.3455002   -2.1033342 
H     0.9949917   -2.6370627   -2.2253786 
H    -1.5495143   -1.6759449   -1.7144886 
H    -0.6403063   -0.3047972   -2.0462530 
