24
Energy =
C     0.3212112    2.5534943   -1.2829864 
C    -1.0024812    2.3939694   -1.0158848 
C    -1.4343552    1.2511545   -0.4365836 
C     1.2041002    1.5725315   -0.9668491 
C     0.7714365    0.4235460   -0.3776705 
C    -0.5564323    0.2663747   -0.1193314 
O    -1.9386199    3.3853433   -1.3256294 
H    -1.5388281    4.2050913   -1.7698532 
H    -0.9238042   -0.6472910    0.3404216 
H     2.2586350    1.7124789   -1.1952503 
H     0.6770813    3.4641956   -1.7528768 
H    -2.4933583    1.1350877   -0.2333320 
C     1.7490277   -0.6824920   -0.0406754 
C     1.7798464   -1.7777537   -1.1241520 
H     1.4718023   -1.1319248    0.9373104 
H     2.7786720   -0.2765977    0.0914656 
C     2.3340803   -1.2537608   -2.4448630 
O     1.8134833   -1.7228568   -3.6451634 
O     3.3838857   -0.3415964   -2.4760686 
H     3.6279354   -0.1676199   -3.4423036 
N     2.5725719   -2.9110278   -0.6167629 
H     0.7391487   -2.1194694   -1.3337649 
H     2.0295706   -3.4024374    0.1312751 
H     2.7007007   -3.6135162   -1.3857072 
