24
Energy =
C     1.0151617    2.2706286    0.2084960 
C     0.6741968    1.7911147    1.4267393 
C     0.6955073    0.4589271    1.6605947 
C     1.3726972    1.4169014   -0.7846336 
C     1.3941109    0.0736278   -0.5583240 
C     1.0517390   -0.4009966    0.6727039 
O     0.3096087    2.6690454    2.4416246 
H    -0.6892968    2.8441237    2.4257241 
H     1.0591785   -1.4709566    0.8727258 
H     1.6419740    1.8127243   -1.7613061 
H     1.0033882    3.3423038    0.0388704 
H     0.4283903    0.0888090    2.6451060 
C     1.7775863   -0.8841275   -1.6675154 
C     0.5770615   -1.3388424   -2.5221056 
H     2.2773132   -1.7801987   -1.2337135 
H     2.5329671   -0.4098006   -2.3330732 
C    -0.4940303   -2.0427038   -1.6956000 
O    -0.2427257   -3.3077760   -1.1844549 
O    -1.6983446   -1.4197172   -1.3889688 
H    -1.5478888   -0.7590741   -0.6417973 
N     0.0655862   -0.2009808   -3.3106379 
H     0.9534939   -2.1168713   -3.2265762 
H    -0.6068168   -0.5691924   -4.0257068 
H    -0.5060318    0.4267274   -2.6968678 
