24
Energy =
C     0.5094099    2.3548256    0.2602346 
C    -0.4513266    2.6571915   -0.6535043 
C    -0.6100242    1.8700904   -1.7416718 
C     1.3045050    1.2696061    0.0805961 
C     1.1472834    0.4787065   -1.0165434 
C     0.1818941    0.7837167   -1.9263718 
O    -1.2881125    3.7670075   -0.4982026 
H    -1.1047374    4.3091371    0.3391617 
H     0.0373839    0.1622546   -2.8065526 
H     2.0653666    1.0383520    0.8219560 
H     0.6429679    2.9795320    1.1368476 
H    -1.3804616    2.1215571   -2.4623981 
C     2.0189347   -0.7413065   -1.2141368 
C     1.2905213   -2.0521870   -0.8241625 
H     2.9663037   -0.6509013   -0.6351533 
H     2.3323135   -0.7889696   -2.2825160 
C     2.0680749   -3.2773037   -1.2741721 
O     3.4563853   -3.2959670   -1.2214231 
O     1.3934964   -4.4170002   -1.6853002 
H     1.1206128   -4.9318370   -0.8606064 
N     1.0389121   -2.0988848    0.6268608 
H     0.3186957   -2.1100492   -1.3675076 
H     1.9348139   -1.9465818    1.1501569 
H     0.3792452   -1.3320445    0.8979068 
