24
Energy =
C    -0.1251278    2.6141653   -1.0311447 
C    -0.0603220    2.7493839    0.3131009 
C     0.6871585    1.8770394    1.0408040 
C     0.5497659    1.6154854   -1.6560043 
C     1.3011015    0.7424302   -0.9320711 
C     1.3640014    0.8772962    0.4212623 
O    -0.7713628    3.7903892    0.9196298 
H    -0.6687997    3.8277726    1.9281644 
H     1.9545468    0.1853349    1.0163580 
H     0.4855516    1.5212832   -2.7373176 
H    -0.7257062    3.3174021   -1.5978342 
H     0.7447453    1.9761475    2.1193801 
C     2.0404783   -0.3785188   -1.6271659 
C     1.1029868   -1.5551323   -2.0106437 
H     2.8775153   -0.7540360   -0.9954017 
H     2.5276733    0.0323521   -2.5422627 
C     1.7799456   -2.5750953   -2.9308759 
O     3.0986278   -2.3922679   -3.3354163 
O     1.0799288   -3.6781567   -3.4178201 
H     0.1646319   -3.7468699   -2.9945824 
N     0.5758495   -2.2060513   -0.7978164 
H     0.2516661   -1.1605124   -2.6110872 
H     1.3647263   -2.4828790   -0.1655711 
H    -0.0326850   -1.5368862   -0.2697682 
