24
Energy =
C    -1.0567325    1.2999274   -0.5593808 
C    -0.9859886    1.4771253    0.7865649 
C     0.1461956    1.1451578    1.4472456 
C     0.0159509    0.8158050   -1.2565420 
C     1.1398966    0.4462440   -0.5621105 
C     1.2038520    0.6168622    0.7831343 
O    -2.0612718    1.9955434    1.5171031 
H    -2.8665793    2.2369818    0.9488291 
H     2.0839490    0.3064556    1.3396974 
H    -0.0231990    0.6200559   -2.9354250 
H    -1.9571083    1.5727401   -1.0977861 
H     0.1829622    1.2849655    2.5219716 
C     2.1906372   -0.3340843   -1.3154592 
C     1.5158056   -1.5171255   -2.0439896 
H     2.9899676   -0.7132489   -0.6411163 
H     2.6764823    0.3433435   -2.0553598 
C     0.1894999   -1.0259155   -2.5901908 
O    -0.8287782   -1.9022118   -2.9390409 
O    -0.2203612    2.1834574   -2.8873736 
H     0.6360008    2.7288975   -2.7556328 
N     2.4012164   -1.9818075   -3.1178375 
H     1.2885898   -2.3399996   -1.3220440 
H     3.2636521   -2.3979584   -2.6924755 
H     1.9309382   -2.7647820   -3.6360914 
