24
Energy =
C     1.4854762    2.5331147   -0.0994412 
C     0.1836705    2.8590372    0.1177352 
C    -0.7525590    1.8846149    0.1508882 
C     1.8440280    1.2364475   -0.2780477 
C     0.9036191    0.2519082   -0.2381447 
C    -0.3991239    0.5846785   -0.0198799 
O    -0.2191553    4.1842802    0.3121949 
H     0.5338572    4.8600082    0.2381962 
H    -1.1680732   -0.1861200   -0.0222206 
H     2.8892745    0.9971583   -0.4560834 
H     2.2425038    3.3091819   -0.1327196 
H    -1.7887673    2.1663013    0.3056030 
C     1.3012623   -1.2004697   -0.4328122 
C     0.7391607   -1.8846389   -1.7158891 
H     0.9682462   -1.7740301    0.4603891 
H     2.4106195   -1.2990919   -0.4154280 
C    -0.1377916   -1.0000617   -2.6056997 
O    -1.5126108   -1.1925340   -2.5850590 
O     0.3783014    0.0436363   -3.3701574 
H     1.3555004    0.1992943   -3.1830515 
N     1.8467725   -2.5185689   -2.4541607 
H     0.0477616   -2.6957932   -1.3825113 
H     1.4527529   -3.0584563   -3.2630172 
H     2.4648703   -1.7855441   -2.8741063 
