24
Energy =
C    -1.1054168    1.2892132    0.6148550 
C    -0.6819964    2.5023683    0.1936482 
C     0.5581491    2.6296906   -0.3496524 
C    -0.3002824    0.2028419    0.5038100 
C     0.9442869    0.3245262   -0.0360777 
C     1.3668058    1.5459276   -0.4655843 
O    -1.5384702    3.5997479    0.3310206 
H    -1.1551542    4.4690224   -0.0234622 
H     2.3518309    1.6604726   -0.9115786 
H    -0.6641653   -0.7645190    0.8416271 
H    -2.0997100    1.1979207    1.0380115 
H     0.9048347    3.5975961   -0.6951917 
C     1.8419645   -0.8893828   -0.1772361 
C     1.5729588   -1.6990307   -1.4662589 
H     1.7194199   -1.5423803    0.7149270 
H     2.9089036   -0.5715465   -0.1742299 
C     0.1460152   -2.2494511   -1.5269609 
O    -0.7736073   -1.7151563   -2.4201753 
O    -0.2685151   -3.2769512   -0.6790026 
H     0.4695966   -3.5991307   -0.0723092 
N     1.9375296   -0.8862329   -2.6422275 
H     2.2337064   -2.5954449   -1.4467434 
H     1.8375977   -1.4711170   -3.5067665 
H     1.2391768   -0.1120919   -2.7583512 
