24
Energy =
C     0.5505702    2.1097223    0.5356061 
C     0.2089107    2.8626694   -0.5348362 
C     0.3945380    2.3708521   -1.7890616 
C     1.0796537    0.8715508    0.3653782 
C     1.2762176    0.3781879   -0.8877198 
C     0.9221557    1.1326020   -1.9650259 
O    -0.3319119    4.1343538   -0.3190125 
H    -0.5654859    4.6335741   -1.1702672 
H     1.0567452    0.7477791   -2.9732778 
H     1.3346199    0.2757660    1.2379995 
H     0.3902022    2.5096481    1.5309061 
H     0.1182693    2.9652148   -2.6534497 
C     1.8444384   -1.0105240   -1.0827370 
C     0.7295679   -2.0696318   -1.1743119 
H     2.5373044   -1.2668257   -0.2501823 
H     2.4632857   -1.0301297   -2.0093748 
C     1.2931497   -3.3912553   -1.6797198 
O     1.4686826   -3.5809106   -3.0424461 
O     1.7249492   -4.3752824   -0.7994842 
H     0.9231625   -4.8719360   -0.4411355 
N     0.0594478   -2.1861735    0.1351163 
H    -0.0137543   -1.7443242   -1.9397116 
H    -0.7685300   -2.8213930    0.0466421 
H     0.7114463   -2.6236280    0.8312280 
