24
Energy =
C     1.5800804    2.3535191   -1.6480904 
C     0.4269853    3.0325868   -1.4491799 
C    -0.5463524    2.5016118   -0.6742616 
C     1.7672566    1.1420243   -1.0649180 
C     0.7950362    0.6045047   -0.2768002 
C    -0.3668647    1.2907561   -0.0876870 
O     0.2373021    4.2723735   -2.0508777 
H     0.5590417    5.0186182   -1.4439846 
H    -1.1602232    0.8750451    0.5280693 
H     2.6982134    0.6061195   -1.2335034 
H     2.3475826    2.7864018   -2.2810188 
H    -1.4703488    3.0521494   -0.5339812 
C     0.9961136   -0.7543518    0.3563804 
C     0.7774982   -1.9158253   -0.6480989 
H     0.3269316   -0.8873528    1.2363656 
H     2.0324695   -0.8035743    0.7625167 
C     1.1442537   -3.2757141   -0.0480670 
O     1.8420635   -3.3455206    1.1522408 
O     0.8518404   -4.4651150   -0.7133061 
H     0.3099567   -4.2929732   -1.5476711 
N    -0.6104701   -1.9137509   -1.1474647 
H     1.4765244   -1.7871756   -1.5056764 
H    -1.2827067   -1.8998157   -0.3433216 
H    -0.7837730   -1.0541668   -1.7211494 
