24
Energy =
C     1.6405222    2.7520182   -1.3548678 
C     0.4407976    3.1173891   -0.8497324 
C    -0.3564259    2.1858838   -0.2663595 
C     2.0636230    1.4652408   -1.2776547 
C     1.2717988    0.5173586   -0.7082414 
C     0.0307885    0.8708852   -0.2225268 
O     0.0594565    4.4610598   -0.9307698 
H    -0.8680995    4.6478393   -0.5650824 
H    -0.6318911   -0.0158046    0.4236651 
H     3.0427152    1.2051989   -1.6701840 
H     2.2663721    3.5109768   -1.8116392 
H    -1.3110835    2.4709539    0.1593910 
C     1.7564718   -0.9211927   -0.5650635 
C     0.6722533   -2.0470474   -0.7569592 
H     2.1987794   -1.0215706    0.4498493 
H     2.5996595   -1.0872905   -1.2710756 
C    -0.7385778   -1.5318837   -1.0828222 
O    -1.1307243   -0.2742918   -0.5876267 
O    -1.6601020   -2.2620327   -1.8269035 
H    -1.3049532   -3.1728606   -2.0771001 
N     1.1425017   -3.0224324   -1.7564767 
H     0.5470749   -2.5786740    0.2138048 
H     1.2718386   -2.5404311   -2.6797138 
H     2.0675893   -3.4174003   -1.4645641 
