24
Energy =
C    -0.2681884    2.5440486   -0.7197767 
C    -0.9102602    2.2279565    0.4272819 
C    -0.5481957    1.1116632    1.1131440 
C     0.7296909    1.7536947   -1.1911166 
C     1.0925761    0.6295266   -0.5124430 
C     0.4506086    0.3194353    0.6489142 
O    -1.9334526    3.0684149    0.8791755 
H    -2.3781634    2.7506499    1.7336256 
H     0.7256280   -0.5679137    1.2141476 
H     1.2332577    2.0315858   -2.1128516 
H    -0.5650830    3.4392397   -1.2551978 
H    -1.0565863    0.8480174    2.0341874 
C     2.2072466   -0.2584026   -1.0348808 
C     1.7014509   -1.5407982   -1.7518814 
H     2.8646426   -0.5412505   -0.1819501 
H     2.8588079    0.3117988   -1.7343280 
C     0.9340698   -2.4707537   -0.8035666 
O    -0.4554184   -2.4598799   -0.7761568 
O     1.6079786   -3.2901255    0.1033222 
H     2.6108128   -3.2130405    0.0295810 
N     0.9765754   -1.2186319   -3.0063727 
H     2.5985212   -2.1291782   -2.0481780 
H     0.0036024   -1.6122332   -3.0025859 
H     0.8545617   -0.1902014   -3.1448342 
