24
Energy =
C     0.7295215    2.2129858    0.7008438 
C     0.1370576    2.8941317   -0.3160038 
C     0.1687926    2.3857364   -1.5685026 
C     1.3474544    1.0286595    0.4602267 
C     1.3765435    0.5134817   -0.8004680 
C     0.7849610    1.2022321   -1.8151096 
O    -0.5093112    4.1157683   -0.1021198 
H    -0.4853908    4.4337769    0.8607176 
H     0.8030308    0.8122650   -2.8296504 
H     1.8184245    0.4988428    1.2845445 
H     0.7111573    2.6146719    1.7082801 
H    -0.3048496    2.9402733   -2.3712668 
C     2.0603664   -0.8094465   -1.0776884 
C     1.0506429   -1.9515313   -1.3738771 
H     2.7186410   -1.1112868   -0.2311456 
H     2.7388659   -0.6706058   -1.9506033 
C     1.7469442   -3.2048077   -1.9151012 
O     3.1318060   -3.2397994   -2.0499383 
O     1.0112974   -4.3159888   -2.3269111 
H     0.0325219   -4.2088798   -2.1055435 
N     0.2512880   -2.2827434   -0.1740072 
H     0.3779863   -1.6161084   -2.1969724 
H     0.3897536   -1.6006167    0.6070276 
H    -0.7682260   -2.2442196   -0.4110664 
