24
Energy =
C     0.1315340    2.0478241    0.6612596 
C    -0.2164987    2.7555074   -0.4378180 
C     0.1419723    2.3178443   -1.6665548 
C     0.8499883    0.9028749    0.5358900 
C     1.2250846    0.4611651   -0.6977248 
C     0.8594994    1.1732375   -1.8004561 
O    -0.9544939    3.9271760   -0.3054556 
H    -0.3406922    4.7290098   -0.2116427 
H     1.1367374    0.8294052   -2.7938713 
H     1.1103802    0.3353981    1.4262652 
H    -0.1778492    2.4016809    1.6389894 
H    -0.1569054    2.8883075   -2.5395201 
C     2.0069735   -0.8285696   -0.8472133 
C     1.1014270   -2.0354715   -1.2032398 
H     2.5597660   -1.0545367    0.0934647 
H     2.7617420   -0.6600276   -1.6437443 
C     1.8656500   -3.3685767   -1.3561076 
O     1.1465216   -4.5569682   -1.2967084 
O     3.2290807   -3.4628416   -1.6527662 
H     3.6878256   -2.5829348   -1.7998896 
N     0.0400418   -2.1403049   -0.1781776 
H     0.6390515   -1.8506251   -2.2002352 
H    -0.6717989   -1.3885365   -0.3374562 
H    -0.4936026   -3.0363741   -0.2960609 
