24
Energy =
C     0.9215549    2.7451213   -0.6514729 
C    -0.3848788    2.8472180   -0.3159298 
C    -1.0616894    1.7416375    0.0949213 
C     1.5591051    1.5490761   -0.5798702 
C     0.8868672    0.4398874   -0.1660140 
C    -0.4293675    0.5432085    0.1687390 
O    -1.0064128    4.0969635   -0.4039014 
H    -1.9846836    4.0924464   -0.1359494 
H    -0.9840151   -0.3348754    0.4917310 
H     2.6075303    1.4853045   -0.8596459 
H     1.4493250    3.6340957   -0.9799598 
H    -2.1102197    1.8128798    0.3632579 
C     1.5894616   -0.9017539   -0.0960130 
C     1.5079607   -1.7898775   -1.3881472 
H     1.1975632   -1.4461402    0.7934373 
H     2.6613476   -0.7348179    0.1522751 
C     0.9625453   -3.1991640   -1.1080690 
O     1.1779708   -3.7865921    0.1333444 
O     0.3426261   -3.9635099   -2.0951730 
H     0.3010991   -3.4599936   -2.9687830 
N     0.7883855   -1.1229303   -2.4944955 
H     2.5512891   -1.9834515   -1.7293130 
H    -0.1953779   -0.8959437   -2.2122397 
H     1.2683738   -0.2284858   -2.7554417 
