24
Energy =
C     0.1941136    2.6797832   -0.9971561 
C    -1.0137231    2.5398779   -0.3880143 
C    -1.3090989    1.3870473    0.2546056 
C     1.0992504    1.6690865   -0.9570245 
C     0.8070156    0.5128402   -0.3007010 
C    -0.4078981    0.3731546    0.2978546 
O    -1.9686854    3.5611670   -0.4100972 
H    -1.6748250    4.3898555   -0.9155130 
H    -0.6676193   -0.5532574    0.8059550 
H     2.0550711    1.7856270   -1.4610336 
H     0.4364804    3.5973489   -1.5222558 
H    -2.2790459    1.2858542    0.7294075 
C     1.8055553   -0.6267550   -0.2746174 
C     1.7466953   -1.5729502   -1.5135819 
H     1.6640705   -1.2040961    0.6685768 
H     2.8317634   -0.2059842   -0.1895289 
C     1.5982870   -3.0279319   -1.0945689 
O     2.5473850   -3.9669771   -1.4742296 
O     0.5093808   -3.4332539   -0.3338515 
H     0.5872879   -4.4298624   -0.1718773 
N     0.6940323   -1.1667434   -2.4659532 
H     2.7311394   -1.5117832   -2.0338831 
H     0.7721286   -1.7552815   -3.3293997 
H    -0.2429320   -1.3917224   -2.0499762 
