24
Energy =
C    -0.2338335    2.4129497   -0.1587099 
C     0.7952934    2.9726591    0.5083984 
C     1.9446616    2.2732972    0.6705858 
C    -0.1306439    1.1594443   -0.6693519 
C     1.0238624    0.4363744   -0.5190646 
C     2.0567103    1.0208874    0.1634265 
O     0.6448723    4.2667056    1.0162000 
H     1.4590484    4.6150389    1.5108253 
H     2.9907849    0.4830113    0.3127555 
H    -0.9965809    0.7970472   -1.1815910 
H    -1.1486861    2.9834361   -0.2797701 
H     2.7785688    2.7130078    1.2077349 
C     1.2903288   -0.9894723   -1.0359183 
C     0.3063854   -1.8786527   -1.8818674 
H     1.5993506   -1.5768154   -0.1402584 
H     2.2233784   -0.9111348   -1.6389949 
C     0.0206665   -3.2195405   -1.1895019 
O    -1.1590234   -3.4088920   -0.4796587 
O     0.9563089   -4.2545964   -1.2121949 
H     1.8016687   -4.0000001   -1.7002290 
N    -0.9171155   -1.1882448   -2.3180259 
H     0.8580928   -2.1647172   -2.8079847 
H    -1.3251637   -1.6947744   -3.1405962 
H    -1.6477074   -1.2678351   -1.5684461 
