24
Energy =
C     0.3886659    2.4779765   -1.4295301 
C    -0.1996115    2.7502047   -0.2420794 
C    -0.0898527    1.8755231    0.7840319 
C     1.0833264    1.3238967   -1.5978141 
C     1.1970200    0.4374563   -0.5697252 
C     0.6034522    0.7194643    0.6238159 
O    -0.9116364    3.9335904   -0.0736619 
H    -1.8872854    3.8033345   -0.3175827 
H     0.6790577    0.0239907    1.4556732 
H     1.5498724    1.1165854   -2.5577854 
H     0.3009896    3.1932517   -2.2403463 
H    -0.5586227    2.1117362    1.7332796 
C     1.9598827   -0.8549387   -0.7619461 
C     1.1339226   -1.9183804   -1.5314189 
H     2.2894818   -1.2705282    0.2165170 
H     2.8993810   -0.6276332   -1.3170684 
C     1.9830635   -3.1344936   -1.9202844 
O     3.3623613   -3.0079523   -2.0371813 
O     1.4009750   -4.3547148   -2.2561811 
H     0.4000847   -4.3182671   -2.1293205 
N    -0.0528207   -2.3096689   -0.7435204 
H     0.8041290   -1.4874502   -2.5052780 
H     0.2273212   -2.5768360    0.2315143 
H    -0.7155525   -1.5008525   -0.6688228 
