24
Energy =
C     0.0004081    1.2347846    1.3062155 
C    -0.0278921    2.4353159    0.6835232 
C     0.5702404    2.5773788   -0.5295879 
C     0.6265533    0.1765067    0.7321119 
C     1.2391610    0.3171918   -0.4758003 
C     1.1980892    1.5226569   -1.1077477 
O    -0.6759585    3.5042059    1.3114243 
H    -0.6882684    4.3585097    0.7649647 
H     1.6524568    1.6423981   -2.0873946 
H     0.6218738   -0.7846958    1.2396656 
H    -0.4926186    1.1296973    2.2667183 
H     0.5413766    3.5319833   -1.0435276 
C     1.9141071   -0.8695465   -1.1366838 
C     0.9909761   -1.6829678   -2.1095971 
H     2.2912899   -1.5573935   -0.3466122 
H     2.8392890   -0.5098064   -1.6337256 
C    -0.4764154   -1.2366228   -2.1080107 
O    -1.3919506   -1.9089190   -1.3089771 
O    -0.8947406   -0.0979219   -2.7913191 
H    -0.9465732   -0.2912462   -3.7788147 
N     1.5821493   -1.8034866   -3.4681747 
H     0.9324262   -2.7184893   -1.7010085 
H     0.9508567   -1.4287150   -4.2121158 
H     2.4915092   -1.3001563   -3.5799574 
