24
Energy =
C    -0.0599519    1.2129593    1.3409141 
C    -0.1238158    2.3993534    0.6933996 
C     0.4771283    2.5476803   -0.5093882 
C     0.6023179    0.1669385    0.7842038 
C     1.2155754    0.3109588   -0.4237268 
C     1.1427801    1.5073206   -1.0711397 
O    -0.8052252    3.4682632    1.2664840 
H    -1.7790493    3.4630405    0.9822534 
H     1.5988588    1.6286618   -2.0504900 
H     0.6301752   -0.7858713    1.3065921 
H    -0.5466707    1.1077980    2.3046683 
H     0.4135056    3.5020621   -1.0203492 
C     1.9260224   -0.8620285   -1.0693403 
C     1.0343169   -1.6958474   -2.0549585 
H     2.3061398   -1.5402481   -0.2727881 
H     2.8489593   -0.4804691   -1.5545882 
C    -0.4230428   -1.2522164   -2.1242819 
O    -0.8038714   -0.1307218   -2.8564904 
O    -1.3876280   -1.9396088   -1.3967286 
H    -2.2838774   -1.5006486   -1.5624596 
N     1.6249762   -1.7674820   -3.4124032 
H     0.9632682   -2.7277560   -1.6361476 
H     2.5392652   -1.2708495   -3.5087559 
H     1.7861545   -2.7661315   -3.6834556 
