24
Energy =
C    -0.4795545    0.6160923    1.1375084 
C     0.4020505   -0.0311316    1.9448456 
C     1.6340379   -0.3389804    1.4790725 
C    -0.1215697    0.9571929   -0.1273670 
C     1.1200483    0.6530977   -0.5947299 
C     1.9944821   -0.0051433    0.2137640 
O     0.0690943   -0.3923196    3.2536850 
H    -0.8757382   -0.1537157    3.5345242 
H     2.9858823   -0.2706889   -0.1463931 
H    -0.8330848    1.4619492   -0.7803416 
H    -1.4717414    0.8537807    1.5047583 
H     2.3273892   -0.8618852    2.1306057 
C     1.5070913    1.0052463   -2.0146484 
C     1.0841082   -0.0859694   -3.0164644 
H     2.6082989    1.1509042   -2.0853693 
H     1.0511154    1.9755214   -2.3159164 
C    -0.4241725   -0.2562521   -3.0960147 
O    -0.9673197   -1.5200373   -3.2756903 
O    -1.2785840    0.8392377   -3.0098632 
H    -2.2188449    0.5282314   -3.2305044 
N     1.6613976    0.2412328   -4.3293047 
H     1.4872052   -1.0687486   -2.6753352 
H     1.4374545   -0.5373824   -4.9946932 
H     1.1732433    1.0885879   -4.7089220 
