24
Energy =
C    -0.9718425    1.7349753   -0.2945595 
C    -0.2405025    2.8312638    0.0291392 
C     1.1031995    2.7918125   -0.0842425 
C    -0.3594660    0.6037831   -0.7290394 
C     1.0048637    0.5536587   -0.8474864 
C     1.7237577    1.6667309   -0.5175258 
O    -0.8437751    4.0093032    0.4812904 
H    -1.8558916    3.9640552    0.5306415 
H     2.8086036    1.6667453   -0.5993616 
H    -1.0012783   -0.2280474   -0.9689214 
H    -2.0529410    1.7597472   -0.2069980 
H     1.6767902    3.6749915    0.1761576 
C     1.8014301   -0.6635654   -1.3241926 
C     1.0555459   -1.9829650   -1.7180109 
H     2.5388217   -0.9006011   -0.5242416 
H     2.4395262   -0.3246297   -2.1714470 
C     1.2785589   -2.3614007   -3.1851528 
O     1.4995163   -1.3829293   -4.1495572 
O     1.1336356   -3.6801532   -3.6005638 
H     1.2879426   -3.7221197   -4.5998561 
N     1.5013269   -3.0516373   -0.8034877 
H    -0.0407588   -1.9084620   -1.6473376 
H     1.0828942   -2.8825058    0.1410815 
H     1.1221503   -3.9753521   -1.1291036 
