24
Energy =
C     0.8313618    2.5478924   -1.7439269 
C     0.1396152    2.9836523   -0.6661556 
C     0.0149546    2.1915362    0.4237095 
C     1.3961814    1.3141797   -1.7376884 
C     1.2763857    0.5108495   -0.6442870 
C     0.5770303    0.9565168    0.4369485 
O    -0.4401032    4.2490791   -0.6774830 
H    -1.3835612    4.2043566   -1.0484522 
H     0.4513797    0.3247661    1.3126219 
H     1.9313248    0.9657736   -2.6167420 
H     0.9230192    3.1918852   -2.6114795 
H    -0.5431256    2.5520788    1.2807578 
C     1.8719171   -0.8829038   -0.6491036 
C     0.9792593   -1.8986398   -1.3948530 
H     2.0418741   -1.2295922    0.3943101 
H     2.8773338   -0.8520379   -1.1244068 
C    -0.4589164   -1.9060696   -0.8530883 
O    -1.5025766   -1.3876098   -1.6116368 
O    -0.7485435   -2.4272593    0.4089895 
H     0.0797542   -2.7640350    0.8746530 
N     1.0539546   -1.6178083   -2.8411757 
H     1.3778422   -2.9222054   -1.2063178 
H     1.9666620   -1.9682965   -3.2153268 
H     0.3040463   -2.1492077   -3.3477454 
