24
 energy: -4.365918417581 gnorm: 0.000981764680 xtb: 6.4.0 (d4b70c2)
C         1.53164011605648    2.59385453727903   -0.18793536976276
C         0.22174482368958    2.70738758461782    0.27691366164436
C        -0.54177748747400    1.54620210929016    0.38126057291270
C         2.04892134924571    1.36732467725468   -0.53148264274670
C         1.28601792442768    0.21129764317942   -0.43079938403894
C        -0.01576918450791    0.32550361085823    0.03450003202706
O        -0.32960976429137    3.92365563621929    0.62965980084776
H         0.32602435360395    4.64185464001202    0.49799550435326
H        -0.63091554640770   -0.55442438835100    0.09156584259667
H         3.06334691053487    1.29596946466348   -0.88443353508093
H         2.13448513130490    3.48008788905604   -0.27381636265378
H        -1.55432789531686    1.63139596728629    0.73381045770508
C         1.89017956821631   -1.11882156363122   -0.78119540634830
C         1.03843551961712   -2.01457335953933   -1.69812049843295
H         2.11449639464616   -1.66147775607865    0.14289726108269
H         2.85588526692163   -0.93967860176264   -1.26535119969539
C        -0.06685108122627   -2.70306023846101   -0.92929055630008
O        -1.17041170518302   -2.20889110896903   -0.88814784918167
O         0.26156203889446   -3.84983000937317   -0.29655370879473
H        -0.54546734117948   -4.17350040398173    0.14797411646567
N         0.48417833766022   -1.28068143569155   -2.82241815544130
H         1.68159333632709   -2.81161894855843   -2.10673154801269
H        -0.09196450822290   -1.90246716583027   -3.37348411358610
H        -0.14122523093649   -0.57753439054487   -2.45629567718589
