24
Energy =
C     1.4640929    2.7525223   -0.3256699 
C     0.2455500    2.9897730   -0.8569749 
C    -0.5413497    1.9448131   -1.2213776 
C     1.9055339    1.4808519   -0.1570593 
C     1.1310120    0.4214307   -0.5293885 
C    -0.1070298    0.6696575   -1.0557573 
O    -0.1740900    4.3146050   -1.0149202 
H    -1.0993974    4.4101510   -1.4191261 
H    -0.7713874   -0.1289033   -1.3573351 
H     2.8885231    1.3207411    0.2806122 
H     2.0814717    3.5955793   -0.0339108 
H    -1.5234970    2.1263241   -1.6449291 
C     1.6779648   -0.9827907   -0.2851658 
C     0.9848958   -2.1533562   -1.0379548 
H     1.6432216   -1.1912214    0.8078341 
H     2.7607958   -0.9661311   -0.5490550 
C     1.9913276   -3.2504666   -1.3927421 
O     1.6832385   -4.5925827   -1.2104627 
O     3.1891822   -2.9223832   -2.0173957 
H     3.0111404   -2.7230647   -2.9909768 
N    -0.1066297   -2.6746895   -0.1919837 
H     0.5883127   -1.8122992   -2.0194479 
H    -0.8546168   -1.9568675   -0.0652229 
H    -0.5580253   -3.4973601   -0.6620957 
