24
Energy =
C    -1.2491416    1.0832320    0.0539072 
C    -0.8017098    2.1448498    0.7582389 
C     0.5208961    2.4116629    0.8086009 
C    -0.3741169    0.2755510   -0.5983402 
C     0.9697205    0.5286961   -0.5520842 
C     1.4028898    1.6101792    0.1599011 
O    -1.7035422    2.9687145    1.4237810 
H    -1.8480650    2.6469585    2.3747911 
H     2.4638540    1.8426949    0.2146721 
H    -0.7849892   -0.5579390   -1.1463637 
H    -2.3156673    0.8867888    0.0147026 
H     0.8654550    3.2741756    1.3691653 
C     2.0337732   -0.3209419   -1.2463175 
C     1.6157152   -1.5787920   -2.0606777 
H     2.7578718   -0.6449051   -0.4663535 
H     2.6073753    0.3475950   -1.9264062 
C     0.8222162   -2.6179096   -1.2613762 
O    -0.4698515   -2.9662373   -1.6415746 
O     1.3757522   -3.2453519   -0.1434860 
H     2.3250600   -2.9516852    0.0281791 
N     0.9740273   -1.1996912   -3.3337441 
H     2.5544008   -2.1184000   -2.3220213 
H     0.1427903   -0.5872232   -3.1752450 
H     1.6457623   -0.6537132   -3.9232392 
