24
Energy =
C     0.9073110    2.7558327   -1.0785507 
C     0.1611864    2.8832341    0.0513830 
C    -0.0634095    1.8004656    0.8299588 
C     1.4255062    1.5491870   -1.4216707 
C     1.2069699    0.4600986   -0.6334527 
C     0.4539457    0.5920885    0.4929966 
O    -0.3864689    4.1119048    0.4333626 
H    -0.1777806    4.8733706   -0.2031251 
H     0.2505733   -0.2725445    1.1206720 
H     2.0133693    1.4617726   -2.3315427 
H     1.0888555    3.6179135   -1.7113820 
H    -0.6675377    1.9132486    1.7236905 
C     1.7681056   -0.8957212   -1.0155246 
C     0.7402990   -1.8723083   -1.6787822 
H     2.2154082   -1.3407742   -0.0982306 
H     2.6318707   -0.7667485   -1.7038939 
C     0.6596434   -3.2173316   -0.9527996 
O    -0.4227021   -4.0656429   -1.1611637 
O     1.7147522   -3.6709852   -0.1680237 
H     1.4843217   -4.5940213    0.1795411 
N    -0.5879616   -1.2389450   -1.8151028 
H     1.1177937   -2.1312095   -2.6944207 
H    -0.5358850   -0.4958739   -2.5504320 
H    -1.2803638   -1.9414787   -2.1729820 
