24
Energy =
C    -1.0222352    1.6956202   -0.3492843 
C    -0.3439290    2.8046881    0.0138067 
C     1.0049228    2.8110531   -0.0205637 
C    -0.3559783    0.5853497   -0.7583879 
C     1.0144899    0.5760330   -0.8035373 
C     1.6813521    1.7081620   -0.4274358 
O    -1.0347704    3.9377803    0.4316016 
H    -1.2357224    4.5459816   -0.3548385 
H     2.7686360    1.7396822   -0.4466270 
H    -0.9619086   -0.2619697   -1.0347355 
H    -2.1063797    1.7036051   -0.3063995 
H     1.5375598    3.7056211    0.2843998 
C     1.8725585   -0.6105800   -1.2514688 
C     1.1854524   -1.9583820   -1.6838426 
H     2.6111057   -0.7921117   -0.4437960 
H     2.5066265   -0.2454071   -2.0935004 
C     1.4605222   -2.2554374   -3.1545675 
O     0.4504162   -2.1187602   -4.0985914 
O     2.7355466   -2.6118628   -3.5741957 
H     2.7152348   -2.7599491   -4.5754893 
N     1.5673239   -3.0869922   -0.7944944 
H     0.0870716   -1.9069655   -1.6520797 
H     1.9876394   -3.8768722   -1.3438831 
H     2.2845263   -2.8387026   -0.0769947 
