24
Energy =
C     1.6307937    2.6267961    0.4039285 
C     0.4193246    3.1469047    0.1264577 
C    -0.5052512    2.3831205   -0.5054096 
C     1.9260420    1.3504136    0.0557357 
C     1.0086418    0.5579133   -0.5811208 
C    -0.2179393    1.1033109   -0.8581672 
O     0.1512143    4.4679043    0.4996189 
H    -0.7832869    4.7838292    0.2634779 
H    -1.0055413    0.5799224   -1.3527466 
H     2.9152622    0.9662344    0.2963674 
H     2.3637011    3.2464653    0.9100207 
H    -1.4829947    2.7953726   -0.7325982 
C     1.4894527   -0.8673588   -0.9163043 
C     0.6884505   -2.0360279   -1.6125727 
H     1.8782186   -1.2679929    0.0507019 
H     2.4091224   -0.7298676   -1.5290676 
C     0.6930688   -3.2959946   -0.7589440 
O     1.5866507   -4.3204483   -1.0420477 
O    -0.1168706   -3.3969839    0.3642192 
H    -1.0308009   -3.7103585    0.0711111 
N    -0.6692491   -1.7169873   -2.0646451 
H     1.2669297   -2.3440543   -2.5163010 
H    -1.2946181   -1.5084997   -1.2508414 
H    -0.6542052   -0.9599955   -2.7874939 
