24
Energy =
C     1.8130775    2.3856751   -1.5731838 
C     1.4876563    2.9535915   -0.3811477 
C     1.1421465    2.1654149    0.6620062 
C     1.7957480    1.0357238   -1.7128194 
C     1.4602500    0.2423596   -0.6597531 
C     1.1224208    0.8148136    0.5275296 
O     1.4958823    4.3412865   -0.2021814 
H     1.7513472    4.8601056   -1.0351476 
H     0.8224899    0.1977404    1.3703871 
H     2.0356286    0.5927755   -2.6771809 
H     2.0793744    3.0090494   -2.4194267 
H     0.8742874    2.6324445    1.6028735 
C     1.4074490   -1.2619001   -0.8284993 
C     0.0503377   -1.8057841   -1.3708490 
H     1.6362815   -1.7512758    0.1439836 
H     2.2418618   -1.5695451   -1.4990924 
C    -1.0409185   -0.7464192   -1.5211621 
O    -1.1921594   -0.0279231   -2.7044524 
O    -1.8905959   -0.4800456   -0.4520245 
H    -2.5182644    0.2679801   -0.7163269 
N     0.2950363   -2.5332125   -2.6309737 
H    -0.3616375   -2.5175393   -0.6178803 
H     0.8527303   -3.3962246   -2.4281487 
H    -0.6156792   -2.8602903   -3.0340939 
