24
Energy =
C    -0.9739976    1.4339135    0.3051634 
C    -0.3276943    2.5737044   -0.0585974 
C     0.9201850    2.4986551   -0.5745880 
C    -0.3688832    0.2285227    0.1537352 
C     0.8909156    0.1528901   -0.3572016 
C     1.5304240    1.2962940   -0.7270675 
O    -0.9222586    3.8314940    0.0862539 
H    -1.8611091    3.8042758    0.4684590 
H     2.5301942    1.2573380   -1.1545298 
H    -0.8998790   -0.6748366    0.4424388 
H    -1.9767370    1.4843251    0.7151655 
H     1.4226902    3.4138176   -0.8683687 
C     1.5571028   -1.1926348   -0.5486728 
C     1.1428251   -1.8562523   -1.8851518 
H     1.2859743   -1.8586867    0.2998994 
H     2.6667774   -1.0842422   -0.5209770 
C     1.5695957   -1.0289169   -3.0872132 
O     2.8784902   -0.5698986   -3.2115751 
O     0.6428327   -0.7053488   -4.0705797 
H     1.1122335   -0.1705217   -4.7892825 
N     1.6930127   -3.2262808   -1.9767827 
H     0.0285145   -1.8911265   -1.9373912 
H     2.2285926   -3.5129044   -1.1237969 
H     0.9148116   -3.9158433   -2.1019647 
