24
Energy =
C    -0.9752322    0.1518830    1.0937157 
C    -0.8849192    1.4963210    1.2091204 
C     0.1566194    2.1548452    0.6514127 
C    -0.0147649   -0.5420215    0.4314864 
C     1.0419290    0.1127197   -0.1276660 
C     1.1192825    1.4687732   -0.0160396 
O    -1.8673153    2.2035815    1.8951347 
H    -1.6253154    2.2949142    2.8753798 
H     1.9458001    2.0130761   -0.4647703 
H    -0.1079928   -1.6220103    0.3393501 
H    -1.8268332   -0.3612821    1.5273197 
H     0.2068793    3.2348624    0.7383254 
C     2.1106947   -0.6550137   -0.8801312 
C     1.7313333   -0.9670156   -2.3499549 
H     2.3201136   -1.6107312   -0.3462956 
H     3.0684259   -0.0899410   -0.8651100 
C     0.5804496   -1.9607865   -2.4468488 
O    -0.7419005   -1.5341549   -2.4643487 
O     0.8448410   -3.3235937   -2.3892984 
H     1.1299311   -3.6383223   -3.3059164 
N     1.4789039    0.2663498   -3.1155556 
H     2.6001682   -1.4828784   -2.8164597 
H     0.5997305    0.7258847   -2.7756234 
H     2.2642141    0.9440468   -2.9777134 
