24
Energy =
C    -0.3681654    2.3260533   -0.6594573 
C     0.2962127    2.7920860   -1.7410518 
C     1.3572173    2.0957546   -2.2305458 
C     0.0195944    1.1732791   -0.0592518 
C     1.0881535    0.4775922   -0.5382013 
C     1.7495340    0.9412254   -1.6341116 
O    -0.1327432    3.9853181   -2.3302987 
H     0.4084082    4.2622130   -3.1422414 
H     2.5891384    0.3860869   -2.0445534 
H    -0.5351084    0.8034219    0.8001899 
H    -1.2181617    2.8849101   -0.2836769 
H     1.8906611    2.4573921   -3.1031502 
C     1.5071569   -0.8231194    0.1176222 
C     0.8204094   -2.0957942   -0.4685013 
H     1.3234570   -0.7428608    1.2140735 
H     2.6104749   -0.9353391    0.0301810 
C     0.1785498   -2.9348230    0.6232852 
O    -0.7832080   -2.3862741    1.4645751 
O     0.5564073   -4.2582610    0.7957878 
H     0.0168412   -4.6511074    1.5570856 
N    -0.1371729   -1.7601800   -1.5419900 
H     1.6171602   -2.7472196   -0.8983869 
H    -0.4544285   -2.6453342   -2.0055392 
H    -0.9966684   -1.3346456   -1.1179262 
