24
Energy =
C     0.5361474    1.9854662    0.7353669 
C    -0.7450581    2.1724747    0.3446384 
C    -1.1974439    1.5675445   -0.7857632 
C     1.3723374    1.2059578    0.0036698 
C     0.9272258    0.6032341   -1.1339553 
C    -0.3656392    0.7848251   -1.5196549 
O    -1.5747128    2.9897587    1.1195727 
H    -2.5255602    3.0579287    0.7748782 
H    -0.7408197    0.2895061   -2.4102639 
H     2.3923325    1.0553509    0.3475992 
H     0.8821405    2.4614772    1.6463335 
H    -2.2262043    1.7035648   -1.1010079 
C     1.8545139   -0.2781314   -1.9494490 
C     1.6043344   -1.7864239   -1.7344892 
H     2.9152617   -0.0505159   -1.6988474 
H     1.7391824   -0.0345856   -3.0277476 
C     1.7754542   -2.1875521   -0.2714641 
O     2.9146219   -2.8763159    0.1226774 
O     0.8218923   -1.8635505    0.6844816 
H     0.1259446   -2.5926190    0.7054736 
N     0.2846949   -2.1582417   -2.2801696 
H     2.3943299   -2.3419255   -2.2930649 
H     0.3185912   -2.0825094   -3.3242322 
H     0.1044235   -3.1715873   -2.0794710 
