24
Energy =
C     0.0220630    1.9244776    0.9487897 
C    -0.3659461    2.7436743   -0.0564330 
C     0.0464654    2.5039308   -1.3223098 
C     0.8184757    0.8563134    0.6897989 
C     1.2378107    0.6097901   -0.5823610 
C     0.8439797    1.4392969   -1.5885289 
O    -1.1856060    3.8360826    0.2123571 
H    -2.1633126    3.5720570    0.1469406 
H     1.1498161    1.2411373   -2.6131346 
H     1.1105748    0.2003386    1.5051698 
H    -0.3135334    2.1299499    1.9593365 
H    -0.2733296    3.1657602   -2.1196074 
C     2.0917740   -0.6029727   -0.8909787 
C     1.2898362   -1.8289901   -1.4533828 
H     2.6330673   -0.9195805    0.0289289 
H     2.9039499   -0.2756818   -1.5745329 
C    -0.2299592   -1.6164799   -1.5273101 
O    -0.8126651   -1.1203530   -2.6890618 
O    -1.0486908   -1.8448295   -0.4181472 
H    -0.5160745   -2.1090679    0.3958338 
N     1.8175099   -2.2725176   -2.7639223 
H     1.4209468   -2.6637970   -0.7263374 
H     2.6345323   -1.7205954   -3.1103202 
H     2.1222200   -3.2734701   -2.7150028 
