24
Energy =
C     2.3331732    2.3251171   -0.4560758 
C     1.1703307    3.0289965   -0.4974766 
C    -0.0107943    2.3752100   -0.4534554 
C     2.3156411    0.9719615   -0.3564524 
C     1.1321793    0.3026209   -0.3180157 
C    -0.0496029    1.0061238   -0.4016680 
O     1.1631753    4.4262008   -0.5709744 
H     2.0867423    4.8417649   -0.6181301 
H    -1.1396530    0.3518034   -0.2420581 
H     3.2569643    0.4323413   -0.3001135 
H     3.2836734    2.8465933   -0.4865651 
H    -0.9312810    2.9454360   -0.4740073 
C     1.0871031   -1.2118668   -0.1466592 
C     0.0225630   -1.9730207   -1.0327041 
H     0.8596076   -1.4095939    0.9233031 
H     2.1071150   -1.6217701   -0.2950047 
C    -0.8813473   -1.0508742   -1.8605091 
O    -1.1626099    0.2507790   -1.3976865 
O    -1.4359760   -1.4586780   -3.0623331 
H    -1.9735233   -0.6911053   -3.4448404 
N     0.6488045   -3.0531443   -1.8387180 
H    -0.7023339   -2.4613903   -0.3440567 
H     0.5111280   -2.8863336   -2.8659300 
H     1.6804641   -3.1398990   -1.7048628 
