24
Energy =
C    -0.1439518    2.0779877   -1.9281999 
C    -0.2914291    2.7794931   -0.7812672 
C     0.3138484    2.3580940    0.3525236 
C     0.6161703    0.9535805   -1.9468973 
C     1.2299866    0.5214892   -0.8093770 
C     1.0760061    1.2347174    0.3422634 
O    -1.0726894    3.9304354   -0.7657197 
H    -0.5109539    4.7484678   -0.9751234 
H     1.5552642    0.9101953    1.2624022 
H     0.7301991    0.4031035   -2.8769914 
H    -0.6417631    2.4233074   -2.8280737 
H     0.1784360    2.9260747    1.2667909 
C     2.0776102   -0.7363423   -0.8307067 
C     1.2339194   -2.0289842   -1.0391122 
H     2.6714696   -0.8354193    0.1069809 
H     2.7995652   -0.6048433   -1.6632848 
C     2.0554329   -3.3270317   -1.1301807 
O     1.4079019   -4.5383502   -0.9149184 
O     3.3977089   -3.3789673   -1.5216921 
H     3.7993640   -2.4890447   -1.7519844 
N     0.2128829   -2.1642270    0.0252981 
H     0.7323945   -1.9563845   -2.0314099 
H     0.1784199   -1.3581335    0.6898857 
H    -0.7402000   -2.2569189   -0.3995634 
