24
Energy =
C    -0.8520554    1.1658887    0.8481912 
C    -0.7913588    2.3469509    0.1923309 
C     0.1637463    2.5400295   -0.7559403 
C     0.0335625    0.1765216    0.5673538 
C     0.9980378    0.3673773   -0.3746283 
C     1.0534383    1.5541079   -1.0392775 
O    -1.7211382    3.3422895    0.5097699 
H    -1.6173302    4.1911718   -0.0352145 
H     1.8009647    1.7163107   -1.8126970 
H    -0.0369924   -0.7681542    1.1004565 
H    -1.6216801    1.0219241    1.5987224 
H     0.2143040    3.4805800   -1.2941759 
C     1.9739123   -0.7459452   -0.6940265 
C     1.3982305   -1.7419633   -1.7395925 
H     2.2209182   -1.2754445    0.2527416 
H     2.9411925   -0.3271655   -1.0533378 
C     1.7230050   -1.3319864   -3.1750299 
O     2.1634210   -2.2695503   -4.1045244 
O     1.5597131   -0.0112441   -3.5831156 
H     1.7740418    0.0571413   -4.5705905 
N     1.8790516   -3.1038575   -1.4439248 
H     0.2851977   -1.7493707   -1.6896676 
H     2.9268842   -3.1287958   -1.4564086 
H     1.5536412   -3.4046898   -0.4953213 
