24
Energy =
C     1.4664269    2.8769232   -0.7137064 
C     0.4320537    3.1069015    0.1194087 
C    -0.4310447    2.1011105    0.4054583 
C     1.6459886    1.6506429   -1.2636243 
C     0.7883888    0.6202016   -0.9896027 
C    -0.2581951    0.8690885   -0.1413995 
O     0.2780836    4.3840225    0.6670701 
H    -0.5208931    4.4762352    1.2848806 
H    -0.9820674    0.1293233    0.1307440 
H     2.4918763    1.5017661   -1.9315629 
H     2.1512916    3.6887481   -0.9357712 
H    -1.2664224    2.2798173    1.0749650 
C     1.1104556   -0.7169733   -1.6789907 
C     0.2878080   -2.0510178   -1.5564930 
H     2.1681674   -0.9420062   -1.4080165 
H     1.1568600   -0.4866264   -2.7674261 
C     1.1532130   -3.1953086   -1.0340947 
O     1.4958560   -4.2523063   -1.8681391 
O     1.6362249   -3.1780183    0.2682243 
H     2.1859933   -4.0144043    0.4181120 
N    -0.9753854   -1.9249274   -0.8121280 
H     0.0332352   -2.3587015   -2.5995183 
H    -1.6347463   -2.6714751   -1.1401116 
H    -0.7974809   -2.1431959    0.2003546 
