24
Energy =
C    -0.3541620    1.7111885    0.6578226 
C    -0.0907844    2.7333748   -0.1878519 
C     0.8111955    2.5733459   -1.1834226 
C     0.2817653    0.5212968    0.5073317 
C     1.1936865    0.3527629   -0.4902184 
C     1.4500902    1.3856512   -1.3412325 
O    -0.7440627    3.9513773   -0.0303898 
H    -1.6006110    3.9714820   -0.5730469 
H     2.1672632    1.2704630   -2.1501959 
H     0.0508425   -0.3008513    1.1807532 
H    -1.0782593    1.8544143    1.4528365 
H     1.0165828    3.4047182   -1.8493159 
C     1.8886605   -0.9795843   -0.6713557 
C     1.0081035   -1.9788713   -1.4516774 
H     2.1530865   -1.4100330    0.3207784 
H     2.8582067   -0.8313064   -1.1997071 
C     1.8139661   -3.1819484   -1.9471345 
O     2.9829466   -3.5532817   -1.2928636 
O     1.3840265   -3.9410323   -3.0343515 
H     0.4894612   -3.6294142   -3.3822692 
N    -0.1270030   -2.3824688   -0.6011670 
H     0.6251330   -1.4653022   -2.3641797 
H    -0.8133113   -2.9286211   -1.1745566 
H     0.2098042   -3.0317433    0.1520351 
