24
Energy =
C    -0.8248658    2.0180058    0.0324054 
C    -0.1750728    2.9514712   -0.6990124 
C     1.0298266    2.6520358   -1.2538506 
C    -0.2813519    0.7887667    0.2165940 
C     0.9272087    0.4850014   -0.3327085 
C     1.5787101    1.4233363   -1.0736076 
O    -0.7679545    4.2066887   -0.8659352 
H    -0.2263375    4.8555542   -1.4260328 
H     2.5396815    1.1950810   -1.5280763 
H    -0.8221303    0.0454370    0.7993337 
H    -1.7878396    2.2655431    0.4669150 
H     1.5535644    3.3957582   -1.8438076 
C     1.5262409   -0.8931611   -0.1396624 
C     1.0885543   -1.9751190   -1.1834106 
H     1.2862371   -1.2305652    0.8960828 
H     2.6360762   -0.8162842   -0.1488820 
C     0.5771243   -3.2264241   -0.4921960 
O     1.2266830   -4.4419191   -0.6712988 
O    -0.5114373   -3.1593162    0.3702325 
H    -0.7095916   -4.0927841    0.7074881 
N     0.1057266   -1.4806285   -2.1672037 
H     1.9923649   -2.3131657   -1.7413072 
H    -0.7826858   -1.2070639   -1.6825312 
H     0.4813884   -0.6536907   -2.6858056 
