24
Energy =
C    -0.6864778    2.0955889   -0.6231457 
C     0.2388432    3.0449434   -0.8844915 
C     1.5495435    2.7170794   -0.9494632 
C    -0.3077030    0.7897654   -0.4462923 
C     1.0333408    0.4692264   -0.4682760 
C     1.9510535    1.4390547   -0.7317041 
O    -0.1555747    4.3654103   -1.0804424 
H    -0.1648158    4.8719936   -0.2023679 
H     3.0108768    1.2024728   -0.7667528 
H    -1.1271523   -0.1259245   -0.0800495 
H    -1.7329771    2.3698747   -0.5721411 
H     2.2758490    3.4924417   -1.1683354 
C     1.4635705   -0.9621456   -0.1653855 
C     0.5837021   -2.0995612   -0.8211404 
H     1.4298138   -1.0847394    0.9387580 
H     2.5353187   -1.0777393   -0.4266078 
C    -0.6379289   -1.5845854   -1.5899893 
O    -1.2439324   -0.3708441   -1.2075843 
O    -1.1737223   -2.2808758   -2.6599209 
H    -1.9529076   -1.7517167   -3.0307389 
N     1.4097471   -3.0466407   -1.6130827 
H     0.1175968   -2.6857629    0.0020763 
H     1.1189151   -3.0456493   -2.6218108 
H     2.4291167   -2.8229465   -1.6154551 
