24
Energy =
C     1.3420945    2.5268382   -0.4478185 
C     0.0926657    2.7135156    0.0355440 
C    -0.6669418    1.6359437    0.3682758 
C     1.8417733    1.2738128   -0.5989889 
C     1.0895947    0.1918145   -0.2560175 
C    -0.1719420    0.3808864    0.2199763 
O    -0.3862654    4.0198150    0.1773180 
H    -1.3326130    4.0757405    0.5376403 
H    -0.7949993   -0.4737341    0.4721328 
H     2.8450207    1.1463552   -0.9984959 
H     1.9353576    3.3945701   -0.7158710 
H    -1.6734925    1.7750524    0.7478772 
C     1.6349147   -1.2077255   -0.4424834 
C     1.1946061   -1.8053652   -1.7927861 
H     1.2934170   -1.8616216    0.3899459 
H     2.7476524   -1.1837292   -0.3831740 
C     2.0328122   -3.0243688   -2.1540838 
O     3.1851638   -2.8637087   -2.9087240 
O     1.7205829   -4.2836518   -1.6578843 
H     2.0199926   -4.3438489   -0.6967227 
N    -0.2510598   -2.0992955   -1.7474074 
H     1.3949188   -1.0588996   -2.5988937 
H    -0.5676808   -2.3821294   -2.7065368 
H    -0.4223017   -2.9356245   -1.1383496 
