24
Energy =
C     2.2631686    2.2070177   -1.0165958 
C     1.0938933    2.8880096   -0.9701025 
C    -0.0488304    2.2547012   -0.6215953 
C     2.3061648    0.8895766   -0.6922514 
C     1.1672509    0.2439515   -0.3276826 
C    -0.0365285    0.9147591   -0.3335967 
O     1.0696281    4.2453787   -1.2770603 
H     1.2287828    4.8036804   -0.4461808 
H    -1.0628462    0.2885773    0.1253734 
H     3.2535854    0.3597496   -0.7309599 
H     3.1658823    2.7297093   -1.3137535 
H    -0.9781616    2.8102368   -0.5882955 
C     1.1562631   -1.2283010    0.0367631 
C     0.2712054   -2.0584647   -0.9328001 
H     0.7602545   -1.3306117    1.0706166 
H     2.1883374   -1.6398133    0.0507812 
C    -1.0921045   -1.4049874   -1.1841823 
O    -1.2702387   -0.0244581   -0.9672854 
O    -2.1461674   -2.1370982   -1.7035161 
H    -1.9680329   -2.3237177   -2.6790345 
N     1.0118907   -2.2651351   -2.1898076 
H     0.0500926   -3.0442679   -0.4617298 
H     1.8585198   -2.8511321   -2.0020507 
H     0.4241348   -2.8218539   -2.8537019 
