24
Energy =
C    -0.5421592    2.1847365   -1.6396784 
C    -1.2862324    2.2412684   -0.5113820 
C    -0.9086732    1.5438046    0.5841725 
C     0.5811165    1.4237929   -1.6781621 
C     0.9692246    0.7176157   -0.5792576 
C     0.2133790    0.7810303    0.5535063 
O    -2.4374376    3.0214078   -0.4760456 
H    -3.2426440    2.4798871   -0.7717285 
H     0.4970954    0.2159711    1.4381716 
H     1.1622805    1.3759089   -2.5948981 
H    -0.8550228    2.7508084   -2.5103136 
H    -1.5134365    1.5989361    1.4828573 
C     2.2101641   -0.1532863   -0.6266621 
C     1.9159310   -1.5699402   -1.1668401 
H     2.6595719   -0.2277810    0.3890577 
H     2.9814850    0.3310929   -1.2647609 
C     0.9236753   -2.3183294   -0.2763995 
O    -0.1372537   -3.0301254   -0.8223307 
O     1.1348455   -2.3890274    1.0963944 
H     1.8559585   -3.0694788    1.2847982 
N     1.4701367   -1.4683999   -2.5690938 
H     2.8585318   -2.1608016   -1.1246935 
H     2.2837611   -1.1982626   -3.1692504 
H     1.1529025   -2.4087175   -2.9090702 
