24
Energy =
C    -0.6411209    1.7060734    0.4151513 
C    -0.0607161    2.7251200   -0.2588011 
C     1.0660103    2.4950127   -0.9846994 
C    -0.1063242    0.4594505    0.3719457 
C     1.0259422    0.2263547   -0.3457939 
C     1.6060966    1.2507698   -1.0301395 
O    -0.6433380    3.9947426   -0.1914527 
H    -0.1513053    4.7036152   -0.7246516 
H     2.5020769    1.0799537   -1.6246355 
H    -0.5912662   -0.3478519    0.9149215 
H    -1.5416172    1.9015903    0.9873545 
H     1.5357309    3.3045510   -1.5332929 
C     1.6066877   -1.1681260   -0.4196492 
C     0.9265217   -2.0123562   -1.5228880 
H     1.4856723   -1.6691296    0.5664815 
H     2.7047900   -1.1205114   -0.6072891 
C     1.1113070   -1.3995265   -2.9042074 
O     2.3863317   -1.2305851   -3.4324965 
O     0.0173358   -0.9079506   -3.6048998 
H    -0.2140606    0.0078655   -3.2487397 
N     1.4398522   -3.3922919   -1.4772080 
H    -0.1746448   -2.0366794   -1.3501622 
H     2.4736856   -3.3980847   -1.6567828 
H     1.2769208   -3.8094690   -0.5306343 
