24
Energy =
C     1.6097182    2.4842839   -1.4929650 
C     1.0922743    2.9431971   -0.3305509 
C     0.7456588    2.0736094    0.6459408 
C     1.7961649    1.1524006   -1.6777719 
C     1.4612129    0.2709053   -0.6941002 
C     0.9260375    0.7399895    0.4676109 
O     0.9077285    4.3093592   -0.1422627 
H     1.7290569    4.7273935    0.2804111 
H     0.6370120    0.0527776    1.2586396 
H     2.2049654    0.7978264   -2.6217721 
H     1.8646832    3.1911857   -2.2753280 
H     0.3166633    2.4553128    1.5661293 
C     1.6428126   -1.2180930   -0.9000720 
C     0.3534281   -1.8873886   -1.4398879 
H     1.9298479   -1.6823542    0.0692729 
H     2.4865521   -1.4174328   -1.6012606 
C    -0.0023401   -1.4092790   -2.8394367 
O     0.9854537   -1.1614636   -3.7864695 
O    -1.3336071   -1.2755657   -3.2064479 
H    -1.6930603   -2.1941032   -3.4218734 
N     0.4834991   -3.3612678   -1.4189839 
H    -0.5055534   -1.5691959   -0.8011927 
H     1.3605175   -3.6895364   -0.9491646 
H    -0.3182918   -3.7827800   -0.8928446 
