24
Energy =
C     0.0163707    1.9864403    0.8940707 
C    -0.3846079    2.7710458   -0.1424045 
C     0.0158081    2.4731049   -1.3994123 
C     0.8173350    0.9143495    0.6688085 
C     1.2288825    0.6207492   -0.5952349 
C     0.8180229    1.4039656   -1.6298157 
O    -1.2049177    3.8874287    0.0561391 
H    -1.4877617    4.0273479    1.0200386 
H     1.1149949    1.1672575   -2.6483508 
H     1.1206209    0.2921937    1.5064503 
H    -0.3056021    2.2129076    1.9045163 
H    -0.3208366    3.0967637   -2.2199668 
C     2.0989979   -0.5911490   -0.8605026 
C     1.3149485   -1.8514340   -1.3688632 
H     2.6503934   -0.8626973    0.0679225 
H     2.9045401   -0.2800846   -1.5592506 
C    -0.2153088   -1.6796389   -1.4010720 
O    -0.8422505   -1.2340184   -2.5600217 
O    -0.9960453   -1.9021286   -0.2659313 
H    -0.4365926   -2.1224882    0.5430263 
N     1.8711406   -2.3656926   -2.6471367 
H     1.4774302   -2.6591715   -0.6204772 
H     1.1470948   -2.3919014   -3.4066110 
H     2.6555093   -1.7910931   -3.0296864 
