24
Energy =
C    -0.1088113    2.4309726   -0.5660361 
C    -0.2607389    2.2366356    0.7709019 
C     0.3262896    1.1717250    1.3623949 
C     0.6292740    1.5615642   -1.3016408 
C     1.2248292    0.4900883   -0.7075065 
C     1.0666617    0.2998972    0.6317379 
O    -1.0132536    3.1138266    1.5580315 
H    -1.4267929    3.8825091    1.0417582 
H     1.5271118   -0.5507000    1.1286784 
H     0.7351786    1.7210345   -2.3723468 
H    -0.5793339    3.2799608   -1.0500720 
H     0.1931518    1.0251190    2.4290053 
C     2.0384943   -0.4867145   -1.5352887 
C     1.1846664   -1.6191137   -2.1504934 
H     2.8545128   -0.9224955   -0.9144980 
H     2.5482018    0.0605791   -2.3590564 
C     0.6134943   -2.5697542   -1.0866474 
O     1.3809282   -2.8638858    0.0345051 
O    -0.5978748   -3.2449899   -1.2434111 
H    -1.0314292   -3.0730317   -2.1351592 
N     0.1769702   -1.0173806   -3.0469472 
H     1.8715010   -2.2546190   -2.7556113 
H    -0.1304887   -1.7164141   -3.7637477 
H    -0.6674567   -0.7215188   -2.4985936 
