24
Energy =
C     0.9523335    2.7796612   -1.0655116 
C     0.8752666    2.9691893    0.2717943 
C     1.0542800    1.9263817    1.1152747 
C     1.2033683    1.5432198   -1.5650624 
C     1.3868483    0.4878444   -0.7224629 
C     1.3052198    0.6866224    0.6230009 
O     0.6188601    4.2379635    0.7806234 
H    -0.3776633    4.3775825    0.9103644 
H     1.4394286   -0.1444713    1.3103906 
H     1.2474997    1.4021114   -2.6430360 
H     0.8077847    3.6237461   -1.7317968 
H     0.9955164    2.0941278    2.1854739 
C     1.6334198   -0.8995962   -1.2760728 
C     0.3240245   -1.6966831   -1.4350364 
H     2.3199716   -1.4576237   -0.6009666 
H     2.1543992   -0.8362323   -2.2587032 
C    -0.6278278   -1.0348412   -2.4240189 
O    -0.2310946   -0.7898696   -3.7320460 
O    -1.9049171   -0.6663787   -2.0239325 
H    -2.4982136   -1.4829897   -2.0216643 
N     0.6618770   -3.0782530   -1.8201434 
H    -0.2022802   -1.7142406   -0.4527328 
H    -0.2138762   -3.6499857   -1.8841925 
H     1.0822283   -3.0759176   -2.7818771 
