24
Energy =
C     0.3797030    2.1460609    0.6608242 
C    -0.2145636    2.7612520   -0.3870039 
C    -0.0656014    2.2509298   -1.6387085 
C     1.1229320    1.0266055    0.4701066 
C     1.2799857    0.5148307   -0.7817862 
C     0.6757407    1.1313011   -1.8349952 
O    -0.9733158    3.9118270   -0.1498557 
H    -1.3816747    4.3174753   -0.9849536 
H     0.7841300    0.7325455   -2.8404551 
H     1.5845772    0.5392636    1.3259457 
H     0.2499354    2.5606104    1.6548691 
H    -0.5399317    2.7359138   -2.4850773 
C     2.0905821   -0.7449581   -0.9982862 
C     1.2062221   -2.0066343   -1.0025942 
H     2.8651841   -0.8483397   -0.2025065 
H     2.6414753   -0.6610617   -1.9623778 
C     2.0163554   -3.2100041   -1.4907785 
O     2.6210080   -4.0640901   -0.5765245 
O     2.2004077   -3.4505170   -2.8529297 
H     1.7727390   -2.7396818   -3.4268863 
N     0.6598078   -2.2109472    0.3533117 
H     0.3689890   -1.8751051   -1.7265025 
H    -0.1554285   -1.5696449    0.4974570 
H     0.2810105   -3.1850956    0.4477556 
