24
Energy =
C     1.2308668    2.5718057   -0.6416938 
C     0.0397050    2.7261476   -0.0190968 
C    -0.6246227    1.6448754    0.4486678 
C     1.7685742    1.3337809   -0.7889393 
C     1.1131386    0.2411950   -0.3058507 
C    -0.0928396    0.4039285    0.3063535 
O    -0.5080905    3.9962148    0.1296063 
H    -0.2077678    4.4162581    1.0022801 
H    -0.6430937   -0.4602447    0.6702426 
H     2.7225585    1.2252280   -1.2985578 
H     1.7441114    3.4465845   -1.0266858 
H    -1.5884168    1.7819741    0.9270796 
C     1.6982212   -1.1428273   -0.4864872 
C     1.1324798   -1.8355430   -1.7413158 
H     1.4879620   -1.7674802    0.4112768 
H     2.8072683   -1.0733320   -0.5560319 
C     1.9545250   -3.0634979   -2.1016040 
O     2.0136711   -4.1463484   -1.2345268 
O     2.6886420   -3.0949223   -3.2786930 
H     3.5404543   -2.5684331   -3.1534627 
N    -0.2877842   -2.1642627   -1.5139542 
H     1.2175159   -1.1404058   -2.6105810 
H    -0.7068017   -2.4956659   -2.4162625 
H    -0.3589882   -2.9750412   -0.8505845 
