24
Energy =
C    -0.6510149    1.3803004    0.8638208 
C    -0.2837926    2.4788676    0.1657235 
C     0.7069447    2.3983614   -0.7517253 
C    -0.0169850    0.1983793    0.6576373 
C     0.9926404    0.1112478   -0.2551211 
C     1.3448003    1.2192011   -0.9653572 
O    -0.9334622    3.6895573    0.3823772 
H    -0.4681954    4.2235943    1.1079672 
H     2.1272228    1.1638789   -1.7180694 
H    -0.3354901   -0.6807360    1.2134420 
H    -1.4638606    1.4528310    1.5784739 
H     0.9750978    3.2826742   -1.3201340 
C     1.6888127   -1.2121255   -0.5080558 
C     1.0035659   -2.0439811   -1.6138992 
H     1.7258624   -1.8065796    0.4332543 
H     2.7484013   -1.0300786   -0.7926719 
C    -0.4167247   -2.4367445   -1.2124689 
O    -0.5961520   -3.5766979   -0.4394921 
O    -1.5259828   -1.6416182   -1.4988948 
H    -1.2640805   -0.8295809   -2.0409557 
N     1.0621323   -1.3159536   -2.8943297 
H     1.5533844   -3.0093373   -1.7169077 
H     2.0609212   -1.2334885   -3.1992664 
H     0.5847894   -1.8869411   -3.6328856 
