24
Energy =
C     1.5408281    2.4941492   -1.5730781 
C     1.2664870    2.9122300   -0.3158475 
C     1.0665305    2.0081710    0.6701588 
C     1.6094967    1.1674931   -1.8505972 
C     1.4082400    0.2500472   -0.8632173 
C     1.1337384    0.6798060    0.4007302 
O     1.1973072    4.2727034   -0.0352837 
H     0.2559150    4.6206875   -0.1866080 
H     0.9495811   -0.0363697    1.1982766 
H     1.8182440    0.8454434   -2.8669519 
H     1.7019799    3.2307263   -2.3529203 
H     0.8453804    2.3573361    1.6734059 
C     1.4440537   -1.2343053   -1.1727973 
C     0.0381232   -1.8864368   -1.4149619 
H     1.9340209   -1.7562290   -0.3197614 
H     2.1395028   -1.4099511   -2.0204647 
C    -1.1541524   -0.9632829   -1.1256886 
O    -1.8346788   -1.0962936    0.0778906 
O    -1.5301871    0.0615047   -1.9961582 
H    -0.9362505    0.0963530   -2.8091058 
N    -0.0476981   -2.5573233   -2.7371208 
H    -0.0790368   -2.6890925   -0.6496377 
H    -0.7856172   -2.1408707   -3.3534207 
H     0.8486752   -2.5682583   -3.2750735 
