24
Energy =
C     0.5803948    2.5576509   -1.3777935 
C    -0.0267714    2.7576116   -0.1853506 
C     0.0127752    1.7951505    0.7642570 
C     1.2254025    1.3894250   -1.6275747 
C     1.2734097    0.4171521   -0.6741974 
C     0.6565015    0.6248959    0.5224537 
O    -0.6878412    3.9556008    0.0663578 
H    -1.6600698    3.8937439   -0.2153608 
H     0.6692364   -0.1465614    1.2882441 
H     1.7027852    1.2400621   -2.5929761 
H     0.5457574    3.3408209   -2.1275983 
H    -0.4754227    1.9701556    1.7168350 
C     1.9723859   -0.8942548   -0.9569460 
C     1.0036572   -1.9310394   -1.5567217 
H     2.4240624   -1.3013219   -0.0241956 
H     2.8213640   -0.7200844   -1.6565519 
C     1.7637789   -3.1258899   -2.1014594 
O     2.4600531   -3.9716712   -1.2464344 
O     1.7946649   -3.3640331   -3.4671848 
H     2.3492271   -4.1941178   -3.6370890 
N     0.0091910   -2.3188251   -0.5378127 
H     0.4855140   -1.4798089   -2.4362456 
H    -0.7077844   -2.9394410   -0.9841431 
H     0.4769392   -2.9028591    0.1983589 
