24
Energy =
C    -0.3523671    1.9838814    0.4354361 
C    -0.5035916    2.6435287   -0.7355660 
C     0.1534716    2.2060055   -1.8428599 
C     0.4492817    0.8913291    0.5115386 
C     1.1119999    0.4514890   -0.5934382 
C     0.9565810    1.1142549   -1.7725911 
O    -1.3392192    3.7643871   -0.7733082 
H    -1.4004616    4.2031212   -1.6857615 
H     1.4743268    0.7744342   -2.6666293 
H     0.5528800    0.3734904    1.4614054 
H    -0.8832593    2.3421762    1.3108674 
H     0.0374655    2.7274014   -2.7870142 
C     1.9956769   -0.7743379   -0.5222612 
C     1.3000351   -2.0285565   -1.1073454 
H     2.3113287   -0.9691651    0.5272451 
H     2.9313667   -0.5663899   -1.0907856 
C     2.2913130   -3.1640927   -1.3152306 
O     2.7483901   -3.4558378   -2.5935904 
O     2.8320181   -3.8495235   -0.2326815 
H     3.5459614   -3.2815295    0.1959785 
N     0.1777362   -2.4503985   -0.2509209 
H     0.9078375   -1.7965050   -2.1250551 
H     0.5145498   -2.6389976    0.7233573 
H    -0.5466164   -1.6961863   -0.2066938 
