24
Energy =
C    -0.6184937    2.1360452   -0.8547660 
C     0.3247744    3.0590800   -1.1735573 
C     1.6304346    2.7088162   -1.1818556 
C    -0.2573767    0.8422315   -0.5797439 
C     1.0800665    0.5062969   -0.5531154 
C     2.0126137    1.4465050   -0.8638653 
O    -0.0174516    4.3799530   -1.4828063 
H    -1.0162106    4.5569528   -1.4887382 
H     3.0705772    1.1994389   -0.8562347 
H    -1.0984958   -0.0277725   -0.1580787 
H    -1.6658383    2.4109212   -0.8258018 
H     2.3697474    3.4610992   -1.4345047 
C     1.4978529   -0.9027948   -0.1406841 
C     0.5758576   -2.0798905   -0.6534453 
H     1.5155865   -0.9267767    0.9703354 
H     2.5532239   -1.0602123   -0.4445563 
C    -0.6095104   -1.6276521   -1.5022330 
O    -1.1924986   -0.3661240   -1.2633091 
O    -1.1653645   -2.4416768   -2.4752455 
H    -1.9061613   -1.9337582   -2.9387199 
N     1.3580910   -3.1191156   -1.3607368 
H     0.0825850   -2.5364763    0.2350025 
H     2.3768169   -2.9124120   -1.4573763 
H     1.2566983   -4.0433295   -0.8808446 
