24
Energy =
C    -0.9281804    1.8373698   -0.3208701 
C    -0.1263262    2.9156711   -0.5241995 
C     1.1999028    2.7349544   -0.7120366 
C    -0.4016989    0.5868546   -0.3131883 
C     0.9311871    0.3987307   -0.5277594 
C     1.7326141    1.4868471   -0.7053819 
O    -0.6361156    4.2185311   -0.5360643 
H    -1.6396718    4.2718117   -0.3983006 
H     2.8051060    1.3720312   -0.8403235 
H    -1.0576647   -0.2586117   -0.1230366 
H    -1.9914011    1.9732699   -0.1558405 
H     1.8299125    3.6049903   -0.8618960 
C     1.5274587   -0.9973258   -0.4845718 
C     0.9249074   -1.9832973   -1.5204093 
H     1.3337534   -1.3986446    0.5371463 
H     2.6356292   -0.9846011   -0.5840692 
C     1.4004451   -1.8411217   -2.9790966 
O     1.0054578   -2.8138088   -3.8881685 
O     2.1918061   -0.7963424   -3.4555791 
H     2.3340922   -0.0697474   -2.7829432 
N     1.1686495   -3.3436515   -1.0079464 
H    -0.1765888   -1.8320829   -1.5740329 
H     0.6134262   -4.0308917   -1.5753429 
H     2.1753303   -3.6006419   -1.1526998 
