24
Energy =
C     0.1560210    2.5676296   -1.4838235 
C    -0.2407638    2.8476687   -0.2211735 
C     0.1301358    2.0405283    0.7998862 
C     0.9202045    1.4742933   -1.7307758 
C     1.2969871    0.6568287   -0.7084731 
C     0.8937004    0.9442594    0.5603620 
O    -1.0266477    3.9690908    0.0282100 
H    -2.0119937    3.7310037   -0.0204356 
H     1.1717001    0.2978491    1.3881623 
H     1.2131695    1.2454939   -2.7523353 
H    -0.1496403    3.2202664   -2.2941663 
H    -0.1931532    2.2786240    1.8072071 
C     2.1108508   -0.5886135   -0.9942320 
C     1.2627559   -1.8110373   -1.4930615 
H     2.6669017   -0.8870101   -0.0769394 
H     2.9158265   -0.3092372   -1.7069669 
C    -0.2583215   -1.5675481   -1.5057746 
O    -0.8757021   -1.0747916   -2.6506835 
O    -1.0366726   -1.7657000   -0.3642251 
H    -0.4821231   -2.0388838    0.4319127 
N     1.7773890   -2.3482035   -2.7791475 
H     1.3978588   -2.6265107   -0.7478064 
H     1.0415524   -2.3412978   -3.5276300 
H     2.5798473   -1.8072485   -3.1731111 
