24
Energy =
C    -0.5931272    1.3597513    0.9434296 
C    -0.2400109    2.5251989    0.3544581 
C     0.7956948    2.5576926   -0.5153797 
C     0.0865235    0.2195776    0.6603318 
C     1.1333924    0.2447089   -0.2109362 
C     1.4801101    1.4213338   -0.8043203 
O    -0.9389724    3.6920111    0.6470266 
H    -1.7120301    3.8169701    0.0026364 
H     2.3045335    1.4616727   -1.5122059 
H    -0.2164530   -0.7134117    1.1289097 
H    -1.4238197    1.3480691    1.6407579 
H     1.0704331    3.5007054   -0.9757645 
C     1.8792832   -1.0276176   -0.5468805 
C     1.2470569   -1.7495947   -1.7511994 
H     1.8958022   -1.7110654    0.3314544 
H     2.9443515   -0.7869934   -0.7673788 
C     2.1678249   -2.8448380   -2.2604722 
O     2.2659359   -4.0593352   -1.5923335 
O     2.9786876   -2.6086530   -3.3602236 
H     3.5261569   -3.4410754   -3.5420618 
N    -0.0842911   -2.2606820   -1.3733218 
H     1.1417509   -1.0269908   -2.5947397 
H    -0.5442875   -2.6639962   -2.2241117 
H     0.0281338   -3.0603979   -0.7031637 
