24
Energy =
C     1.0658254    0.7619589    1.5977678 
C     1.0169954    2.0672268    1.2202367 
C     1.1293424    2.3894684   -0.0881642 
C     1.2291258   -0.2118657    0.6664953 
C     1.3471593    0.1113276   -0.6518144 
C     1.2918385    1.4200781   -1.0239152 
O     0.8516257    3.0948563    2.1535526 
H     0.7634142    2.7723131    3.1111702 
H     1.3701448    1.6966813   -2.0726637 
H     1.2578712   -1.2530317    0.9826583 
H     0.9710323    0.4934563    2.6445764 
H     1.0836648    3.4343996   -0.3758003 
C     1.5131241   -0.9745824   -1.6966171 
C     0.1684489   -1.5319841   -2.2069961 
H     2.1227541   -1.8074805   -1.2785920 
H     2.0883602   -0.5819245   -2.5641210 
C    -0.6356618   -2.1984972   -1.0970869 
O    -0.0691351   -3.2299068   -0.3576099 
O    -1.9326621   -1.7947304   -0.8059417 
H    -2.2908278   -2.3689244   -0.0533100 
N    -0.5719565   -0.4697594   -2.9146265 
H     0.3994182   -2.3485131   -2.9284154 
H    -1.3773432   -0.9120495   -3.4183319 
H    -1.0200686    0.1617143   -2.2062230 
