24
Energy =
C     1.4429227    2.6399433   -0.8653191 
C     0.7838306    2.7949068    0.3057430 
C     0.3837208    1.6976305    1.0023001 
C     1.7075784    1.3991263   -1.3473054 
C     1.3155856    0.2971570   -0.6499834 
C     0.6468810    0.4544611    0.5257854 
O     0.5293054    4.0899633    0.7678325 
H     0.0279260    4.1223838    1.6490131 
H     0.3080267   -0.4170936    1.0818792 
H     2.2318964    1.2960856   -2.2934306 
H     1.7534539    3.5231344   -1.4131916 
H    -0.1520912    1.8111841    1.9386229 
C     1.5906124   -1.0948301   -1.1854438 
C     0.3667973   -1.7919139   -1.8690826 
H     1.9860998   -1.7010578   -0.3395398 
H     2.4325859   -1.0600337   -1.9115105 
C     0.0641872   -3.1653817   -1.2588950 
O     1.0723843   -3.9131342   -0.6622854 
O    -1.1784452   -3.7625272   -1.4368630 
H    -1.2409858   -4.1179237   -2.3790748 
N    -0.8188773   -0.9100667   -1.8621373 
H     0.6430273   -2.0055393   -2.9267872 
H    -0.6640104   -0.1254234   -2.5377416 
H    -1.6595015   -1.4288100   -2.2130929 
