24
Energy =
C    -0.7739925    2.0994731   -0.2010048 
C     0.1250549    2.9879403   -0.6829189 
C     1.4105384    2.6130511   -0.8774110 
C    -0.3918464    0.8285653    0.0817916 
C     0.9007247    0.4428728   -0.1123322 
C     1.8009814    1.3433214   -0.5967912 
O    -0.2702985    4.2899867   -0.9716533 
H    -0.5766088    4.3680257   -1.9353349 
H     2.8358573    1.0537609   -0.7613844 
H    -1.1266819    0.1217880    0.4615805 
H    -1.7995248    2.4150929   -0.0416292 
H     2.1219802    3.3398669   -1.2550777 
C     1.3255261   -0.9793355    0.1914234 
C     1.1653417   -2.0028097   -0.9840391 
H     0.7638709   -1.3233488    1.0927878 
H     2.3875909   -0.9795589    0.5233435 
C     0.3673437   -3.2229445   -0.5574210 
O    -0.8672166   -3.0729377    0.0623531 
O     0.8573423   -4.4988334   -0.7944115 
H     0.6534965   -4.7467958   -1.7523617 
N     0.5922924   -1.4086155   -2.2064386 
H     2.1755124   -2.4025081   -1.2353398 
H    -0.3696764   -1.0392936   -2.0121359 
H     1.1913171   -0.6209874   -2.5464614 
