24
Energy =
C     0.8907528    2.3125719    1.3935175 
C     0.0037449    2.9805988    0.6293097 
C    -0.3995094    2.4567499   -0.5460194 
C     1.3697101    1.1107438    0.9875651 
C     0.9672279    0.5509819   -0.1959669 
C     0.0742243    1.2539132   -0.9630101 
O    -0.4873034    4.2135393    1.0475735 
H    -1.3300479    4.0937759    1.5989552 
H    -0.2962860    0.9136353   -1.9075650 
H     2.0868060    0.5984601    1.6253060 
H     1.2175720    2.7502686    2.3307945 
H    -1.1046584    3.0128996   -1.1545924 
C     1.5974204   -0.8116995   -0.5365379 
C     1.2526747   -1.7231837   -1.7754961 
H     1.4521503   -1.4258645    0.3828597 
H     2.6958634   -0.6374153   -0.5742965 
C     0.9527556   -3.1585771   -1.3465008 
O     0.0390871   -3.4269692   -0.3325173 
O     1.5934691   -4.2176369   -1.9768866 
H     1.2576964   -5.0859552   -1.5791612 
N     0.1937533   -1.1872531   -2.6430546 
H     2.1841121   -1.8230911   -2.3839320 
H     0.6385015   -0.5472938   -3.3435474 
H    -0.2322257   -1.9562616   -3.2155539 
