24
Energy =
C     0.7321237    2.2143186    0.8087962 
C     1.0663865    2.9541502   -0.2733839 
C     1.4469672    2.3438840   -1.4187419 
C     0.7850544    0.8586065    0.7521688 
C     1.1753763    0.2375502   -0.3962218 
C     1.5086306    0.9891852   -1.4815837 
O     1.0109550    4.3430046   -0.2096542 
H     1.8910205    4.7210382    0.1225016 
H     1.8046723    0.5073761   -2.4128287 
H     0.5124142    0.2788658    1.6303648 
H     0.4180215    2.7192787    1.7158452 
H     1.6930855    2.9486786   -2.2849925 
C     1.2411355   -1.2744462   -0.4741483 
C     0.1638695   -1.9446293   -1.3801562 
H     1.1800272   -1.7169636    0.5444844 
H     2.2598272   -1.5433797   -0.8363747 
C    -0.9025498   -0.9920282   -1.9305424 
O    -0.8013091   -0.4675233   -3.2134570 
O    -1.9967091   -0.6433612   -1.1490870 
H    -1.6987877    0.0275042   -0.4581555 
N     0.8533874   -2.6934882   -2.4496626 
H    -0.4141454   -2.6654449   -0.7554556 
H     1.2757881   -3.5628511   -2.0466284 
H     0.1607633   -3.0099151   -3.1721906 
