24
Energy =
C     0.6491746    2.0422625    0.9161468 
C     0.1150956    2.7835726   -0.0814250 
C     0.1646133    2.3371466   -1.3573423 
C     1.2268804    0.8448197    0.6421591 
C     1.2737259    0.3844823   -0.6394539 
C     0.7406020    1.1407148   -1.6395455 
O    -0.4769317    4.0100308    0.2034994 
H    -1.4662699    3.8955144    0.3938588 
H     0.7776473    0.7966305   -2.6701842 
H     1.6547971    0.2633097    1.4547562 
H     0.6150093    2.4188286    1.9328748 
H    -0.2548040    2.9492453   -2.1485657 
C     1.9119111   -0.9510506   -0.9556747 
C     0.8588829   -2.0442733   -1.2793641 
H     2.5592627   -1.2990355   -0.1184582 
H     2.5996916   -0.8170083   -1.8226047 
C     1.4929861   -3.2705105   -1.9168157 
O     2.8688867   -3.4667659   -1.8935178 
O     0.6901410   -4.2231620   -2.5259833 
H     0.3354659   -4.8346145   -1.8051494 
N     0.0990470   -2.4336813   -0.0710530 
H     0.1665696   -1.6546338   -2.0624526 
H     0.3136455   -1.8243609    0.7520197 
H    -0.9269528   -2.3275272   -0.2537085 
