24
Energy =
C     1.7729055    2.3424663   -1.5579476 
C     1.0147144    2.9229378   -0.5994742 
C     0.3926030    2.1587118    0.3270881 
C     1.9061128    0.9925244   -1.5969506 
C     1.2810380    0.2150150   -0.6685928 
C     0.5210778    0.8080540    0.2945023 
O     0.8801480    4.3070893   -0.5626945 
H     0.0992292    4.6050041   -1.1377174 
H     0.0038638    0.2048573    1.0371507 
H     2.5079928    0.5363667   -2.3788696 
H     2.2700574    2.9676931   -2.2915768 
H    -0.2111645    2.6368401    1.0910334 
C     1.4078958   -1.2943464   -0.7210721 
C     0.3089002   -1.9651415   -1.5703194 
H     1.3775915   -1.7097763    0.3116380 
H     2.4006224   -1.5761915   -1.1365337 
C    -1.0889356   -1.6957062   -1.0296898 
O    -1.8644597   -0.6506200   -1.5203262 
O    -1.5848543   -2.4736002    0.0063532 
H    -2.5163299   -2.1491414    0.2339324 
N     0.4784887   -1.5873385   -2.9872477 
H     0.4388495   -3.0683143   -1.4724507 
H    -0.1511207   -2.1878170   -3.5715548 
H     0.1261018   -0.6088771   -3.1268191 
