24
Energy =
C    -0.9767790    1.3459667    0.4386368 
C    -0.4737467    2.5228152    0.0007390 
C     0.7311270    2.5573200   -0.6134896 
C    -0.2690220    0.1990549    0.2749494 
C     0.9519756    0.2276408   -0.3279544 
C     1.4443553    1.4143427   -0.7817315 
O    -1.2012547    3.6963397    0.1713251 
H    -0.9692848    4.1364176    1.0548659 
H     2.4070745    1.4568593   -1.2853918 
H    -0.6903069   -0.7445440    0.6131873 
H    -1.9534900    1.3302671    0.9103070 
H     1.1136881    3.5057528   -0.9752149 
C     1.7332256   -1.0519835   -0.5322494 
C     1.2782005   -1.7938351   -1.8031879 
H     1.6164447   -1.7199104    0.3505427 
H     2.8208772   -0.8208536   -0.5974668 
C     2.2809235   -2.8665698   -2.1903322 
O     2.5047087   -3.9583890   -1.3597321 
O     3.0096407   -2.7447339   -3.3638033 
H     3.6204171   -3.5476215   -3.4482087 
N    -0.0748464   -2.3429173   -1.5861242 
H     1.2625714   -1.0760667   -2.6586510 
H    -0.4400622   -2.7088136   -2.4980395 
H    -0.0154204   -3.1735951   -0.9466663 
