24
Energy =
C     0.3621692    2.2942212    0.5777360 
C    -0.0295534    2.9673384   -0.5284583 
C     0.2178243    2.4413315   -1.7580123 
C     1.0051917    1.1045763    0.4673763 
C     1.2695545    0.5811531   -0.7614937 
C     0.8614117    1.2523413   -1.8740035 
O    -0.6824628    4.1945656   -0.3740085 
H    -0.9790044    4.6162357   -1.2475856 
H     1.0303010    0.8287448   -2.8615500 
H     1.2949041    0.5700413    1.3679668 
H     0.1467245    2.7156449    1.5536409 
H    -0.1058570    2.9652399   -2.6510289 
C     1.9617115   -0.7625311   -0.8925685 
C     1.0011877   -1.9807023   -1.0319890 
H     2.6280353   -0.9248514   -0.0166762 
H     2.6496633   -0.7179643   -1.7670325 
C    -0.4838453   -1.6198665   -0.9429576 
O    -1.1868817   -1.2027277   -2.0663488 
O    -1.1343466   -1.6526833    0.2844495 
H    -1.3871741   -2.6062528    0.4970195 
N     1.3265190   -2.6992342   -2.2785308 
H     1.1867982   -2.6620822   -0.1695665 
H     2.2310555   -3.2119371   -2.1534509 
H     0.5975765   -3.4273618   -2.4743179 
