24
Energy =
C    -0.8761393    1.4143776    0.0750560 
C    -0.1970622    2.1766600    0.9595311 
C     1.1319578    1.9991043    1.1225513 
C    -0.2266221    0.4755462   -0.6598028 
C     1.1193621    0.2885364   -0.5095397 
C     1.7889912    1.0621109    0.3932660 
O    -0.8675480    3.1385875    1.7081434 
H    -0.8679291    4.0315184    1.2276026 
H     2.8587063    0.9331145    0.5415176 
H    -0.8092566   -0.1091762   -1.3559876 
H    -1.9458561    1.5587217   -0.0355522 
H     1.6623923    2.6093754    1.8457830 
C     1.9270962   -0.7464568   -1.2868286 
C     1.2036897   -1.6224644   -2.3470444 
H     2.4019280   -1.4308101   -0.5458862 
H     2.7608279   -0.2177460   -1.8002272 
C     0.2281743   -2.6193726   -1.7233911 
O    -1.1507262   -2.4976050   -1.8712477 
O     0.7281692   -3.6677275   -0.9618748 
H    -0.0485239   -4.2228815   -0.6255403 
N     0.6617029   -0.8135860   -3.4658900 
H     1.9812819   -2.2881115   -2.7849033 
H    -0.3812170   -0.8784679   -3.5317013 
H     0.9058256    0.2009375   -3.3764622 
