24
Energy =
C     0.3803941    1.8617181    0.9240834 
C    -0.0156175    2.7021097   -0.0592944 
C     0.2190447    2.3875579   -1.3540290 
C     1.0076353    0.6981725    0.6151589 
C     1.2477722    0.3747903   -0.6863552 
C     0.8452984    1.2254894   -1.6712037 
O    -0.6585964    3.8934506    0.2612062 
H    -1.6632560    3.7612826    0.2974806 
H     1.0260518    0.9845509   -2.7160085 
H     1.3145361    0.0274825    1.4146849 
H     0.1933596    2.1307052    1.9582668 
H    -0.0950479    3.0763315   -2.1310196 
C     1.9326446   -0.9274502   -1.0383902 
C     0.9229868   -2.0383128   -1.3986201 
H     2.5695728   -1.2777197   -0.1935561 
H     2.6311339   -0.7547662   -1.8887554 
C     1.6309362   -3.2450937   -2.0213674 
O     2.9844416   -3.4611281   -1.7897308 
O     0.9368364   -4.1559198   -2.8180044 
H    -0.0395948   -3.9201212   -2.9062774 
N     0.1735051   -2.4161174   -0.1861557 
H     0.2235997   -1.6500217   -2.1747808 
H    -0.5349618   -1.6743551    0.0243656 
H    -0.3715804   -3.2952438   -0.3573108 
