24
Energy =
C    -0.3297462    0.3594756    1.4486921 
C    -0.8969771    1.5455116    1.1339258 
C    -0.4667130    2.2255481    0.0379827 
C     0.6637824   -0.1537327    0.6800580 
C     1.0948333    0.5185823   -0.4237909 
C     0.5252625    1.7162587   -0.7358730 
O    -1.9143152    2.0445774    1.9543535 
H    -2.2984040    2.9293526    1.6417097 
H     0.8588499    2.2776095   -1.6043435 
H     1.1074559   -1.1074214    0.9554927 
H    -0.6823464   -0.1742191    2.3244334 
H    -0.9140371    3.1791181   -0.2210046 
C     2.2050788   -0.0538390   -1.2861990 
C     1.7330442   -1.1650558   -2.2625071 
H     2.9971313   -0.4714241   -0.6219965 
H     2.7003324    0.7534087   -1.8691972 
C     1.1791201   -2.3762633   -1.5282589 
O    -0.1751737   -2.6953897   -1.5627072 
O     2.0387001   -3.1529009   -0.7567573 
H     1.5177763   -3.9240197   -0.3580046 
N     0.7844147   -0.6505332   -3.2734025 
H     2.6428663   -1.5503136   -2.7792183 
H     0.5745889    0.3656534   -3.1526273 
H     1.1855746   -0.7686351   -4.2328841 
