24
Energy =
C    -0.8260165    1.9452304   -1.4398145 
C     0.0656474    2.4142600   -2.3423678 
C     1.3342435    1.9436726   -2.3492784 
C    -0.4482308    1.0110672   -0.5313472 
C     0.8323628    0.5442454   -0.5208008 
C     1.7203432    1.0093411   -1.4429414 
O    -0.3254396    3.3723230   -3.2719774 
H    -0.1766817    4.3071292   -2.9083535 
H     2.7376439    0.6273414   -1.4682448 
H    -1.1774982    0.6298388    0.1799921 
H    -1.8448746    2.3162524   -1.4576527 
H     2.0323182    2.3140377   -3.0924709 
C     1.2496123   -0.5168926    0.4775331 
C     1.0779557   -1.9848998   -0.0229222 
H     0.6844721   -0.3548263    1.4244658 
H     2.3133114   -0.3526549    0.7579839 
C     0.2631678   -2.8190562    0.9544413 
O     0.7433980   -4.0443958    1.3963842 
O    -0.9765032   -2.3768821    1.3988929 
H    -1.3635848   -3.0803423    2.0158293 
N     0.5188774   -2.0391750   -1.3881240 
H     2.0887067   -2.4554218   -0.0414498 
H     0.5541057   -3.0290813   -1.7310441 
H    -0.4977582   -1.7843314   -1.3510921 
