24
Energy =
C     0.8427696    2.2012143   -2.3370860 
C     0.5239885    3.0112856   -1.2923214 
C     0.6003016    2.5343366   -0.0288760 
C     1.2417673    0.9238253   -2.1121121 
C     1.3340429    0.4478009   -0.8397885 
C     0.9992424    1.2580461    0.2017066 
O     0.1137020    4.3337179   -1.4888537 
H     0.0621434    4.6089079   -2.4637314 
H     1.0358968    0.8866598    1.2223534 
H     1.4685801    0.2758004   -2.9561371 
H     0.7710726    2.5695675   -3.3548112 
H     0.3296632    3.1855323    0.7950183 
C     1.7493057   -0.9896683   -0.5939568 
C     0.5911959   -2.0260161   -0.6891746 
H     2.2310694   -1.0743314    0.4050579 
H     2.5533855   -1.2508008   -1.3188478 
C    -0.7810313   -1.4130833   -0.9782425 
O    -1.5744028   -0.9704180    0.0742977 
O    -1.2403920   -1.2539907   -2.2803508 
H    -2.1464010   -0.8058473   -2.2481266 
N     0.9674433   -3.0599218   -1.6735814 
H     0.4749059   -2.5056879    0.3108588 
H     1.6406558   -3.7272477   -1.2296872 
H     0.1234994   -3.6196228   -1.9480665 
