24
Energy =
C     0.9415302    0.7157394    1.5370401 
C     0.8061582    2.0131733    1.1806597 
C     0.9100590    2.3645966   -0.1288328 
C     1.1863914   -0.2335082    0.5987003 
C     1.3007594    0.1133928   -0.7138226 
C     1.1532395    1.4192011   -1.0715734 
O     0.5617081    2.9632157    2.1775830 
H     0.4472365    3.9077970    1.8269188 
H     1.2189312    1.7122136   -2.1159280 
H     1.2775942   -1.2734286    0.9047292 
H     0.8445884    0.4459668    2.5831407 
H     0.7940058    3.4011935   -0.4261502 
C     1.5568092   -0.9463253   -1.7689263 
C     0.2494458   -1.5301840   -2.3476400 
H     2.1732725   -1.7661015   -1.3359499 
H     2.1625332   -0.5142700   -2.5954376 
C    -0.5647069   -2.2453100   -1.2706761 
O    -1.9246527   -2.0109892   -1.1159826 
O     0.0390467   -3.2153633   -0.4771662 
H     0.1537664   -4.0604795   -1.0170950 
N    -0.5002412   -0.4559910   -3.0259833 
H     0.5142111   -2.3179495   -3.0883289 
H    -0.0016534   -0.1880165   -3.9063333 
H    -1.4433184   -0.8108752   -3.3172028 
