24
Energy =
C     0.0279896    1.4441961    1.1139764 
C     0.2504229    2.5993195    0.4461210 
C     0.9706014    2.5911537   -0.6986170 
C     0.5357448    0.2761241    0.6443588 
C     1.2745545    0.2612164   -0.5005435 
C     1.4851791    1.4274463   -1.1726270 
O    -0.2701775    3.7947434    0.9316040 
H     0.3866173    4.2433640    1.5603752 
H     2.0473733    1.4326737   -2.1042360 
H     0.3434536   -0.6460320    1.1879022 
H    -0.5654213    1.4634702    2.0218088 
H     1.1201904    3.5215196   -1.2360641 
C     1.8309283   -1.0467496   -1.0246493 
C     0.7886268   -1.8544340   -1.8351121 
H     2.1726326   -1.6539563   -0.1552087 
H     2.7437596   -0.8749846   -1.6380057 
C     0.7003867   -1.3805368   -3.2980062 
O     0.4968694   -0.0312286   -3.5523880 
O     0.7813214   -2.2371264   -4.3981377 
H     0.8323203   -3.2100253   -4.1516622 
N     1.1108740   -3.2853619   -1.6707957 
H    -0.2270583   -1.6701333   -1.4120801 
H     0.3259641   -3.8792422   -2.0309663 
H     1.9903930   -3.5287313   -2.1882596 
