24
Energy =
C     1.1504879    2.5411183   -0.3872843 
C     1.0727598    2.3105913    0.9432080 
C     1.1479969    1.0460736    1.4160502 
C     1.3086642    1.5059912   -1.2516409 
C     1.3815454    0.2275105   -0.7846749 
C     1.3070906    0.0061800    0.5589783 
O     0.9105675    3.3743827    1.8250041 
H     1.8108070    3.7323869    2.1244757 
H     1.3748781   -1.0034946    0.9574075 
H     1.3800565    1.7125130   -2.3156632 
H     1.0829178    3.5605878   -0.7522193 
H     1.0778772    0.8744911    2.4848219 
C     1.5514328   -0.9363872   -1.7441616 
C     0.2200678   -1.6529463   -2.1032890 
H     2.2489136   -1.6777809   -1.2909551 
H     2.0502964   -0.5976572   -2.6791089 
C    -0.5079796   -2.1820920   -0.8746610 
O     0.1105932   -3.1289280   -0.0664946 
O    -1.7650132   -1.7130772   -0.5152453 
H    -1.6496177   -0.9078039    0.0810047 
N    -0.6549424   -0.8003769   -2.9377375 
H     0.4875970   -2.5726366   -2.6740908 
H    -0.2643000    0.1553375   -3.0944815 
H    -0.7855626   -1.2364775   -3.8803592 
