24
Energy =
C     1.2561611    2.5737343   -0.4567092 
C    -0.0108298    2.7302331   -0.0088291 
C    -0.7502099    1.6472673    0.3225840 
C     1.7934064    1.3314293   -0.5641175 
C     1.0604011    0.2365193   -0.2167190 
C    -0.2196356    0.4019768    0.2188907 
O    -0.5580145    4.0046561    0.0994544 
H    -0.3835627    4.3927087    1.0199204 
H    -0.8279695   -0.4631340    0.4707087 
H     2.8098689    1.2210186   -0.9337894 
H     1.8313307    3.4504541   -0.7349534 
H    -1.7714858    1.7869226    0.6602901 
C     1.6477591   -1.1517811   -0.3550221 
C     1.2619148   -1.8013630   -1.6995091 
H     1.3068319   -1.7975147    0.4851391 
H     2.7566632   -1.1003035   -0.2645864 
C     2.1100799   -3.0432249   -1.9839291 
O     2.5084104   -3.8609273   -0.9327991 
O     2.4501151   -3.4101845   -3.2854038 
H     2.0581609   -2.7836080   -3.9726209 
N    -0.1798066   -2.1083913   -1.6906878 
H     1.4770230   -1.0665240   -2.5094821 
H    -0.4764126   -2.3893151   -2.6558443 
H    -0.3593201   -2.9393478   -1.0748699 
