24
Energy =
C     0.8778340    2.5634262   -1.3869030 
C     0.2287326    2.8165004   -0.2189726 
C     0.1268235    1.8425669    0.7135688 
C     1.4221765    1.3408985   -1.6140941 
C     1.3289284    0.3627545   -0.6709741 
C     0.6703923    0.6190741    0.4924663 
O    -0.3435109    4.0646436    0.0465928 
H    -0.2263809    4.7404771   -0.7005288 
H     0.5666028   -0.1561916    1.2473756 
H     1.9317846    1.1517975   -2.5559269 
H     0.9603363    3.3372049   -2.1426134 
H    -0.4000495    2.0545632    1.6374644 
C     1.9154871   -1.0074593   -0.9315100 
C     0.8781961   -1.9544281   -1.5662490 
H     2.2963209   -1.4508332    0.0163700 
H     2.8026200   -0.9135734   -1.5987880 
C     1.5486473   -3.2065297   -2.1049297 
O     2.3415874   -3.9894367   -1.2773453 
O     1.3640776   -3.5855152   -3.4265123 
H     0.4628850   -4.0310765   -3.5196896 
N    -0.1678860   -2.2671442   -0.5744895 
H     0.4213571   -1.4464788   -2.4485495 
H    -0.9376985   -2.8032663   -1.0407064 
H     0.2275945   -2.8994539    0.1646852 
