24
Energy =
C    -0.0565888    2.2133326   -1.6657559 
C    -0.1166703    2.7874757   -0.4427681 
C     0.5107634    2.1957965    0.6086276 
C     0.6225374    1.0526231   -1.8483654 
C     1.2499137    0.4543615   -0.7986594 
C     1.1914650    1.0350849    0.4318480 
O    -0.8281709    3.9825509   -0.2944769 
H    -0.8202797    4.3530841    0.6496046 
H     1.6897908    0.5772836    1.2826701 
H     0.6621608    0.6091557   -2.8401199 
H    -0.5586760    2.6966240   -2.4969325 
H     0.4704043    2.6498642    1.5929078 
C     2.0005695   -0.8440349   -1.0035181 
C     1.0454986   -2.0535651   -1.1870920 
H     2.6956328   -1.0486440   -0.1572359 
H     2.6531867   -0.7364850   -1.9007919 
C     1.7777310   -3.2771623   -1.7148734 
O     3.1653511   -3.3550846   -1.6887794 
O     1.0553962   -4.3479512   -2.2196530 
H     0.7560957   -4.9141831   -1.4392311 
N     0.3459861   -2.3833666    0.0742058 
H     0.3066589   -1.8088932   -1.9863883 
H     0.5170507   -1.6753452    0.8252496 
H    -0.6885764   -2.3878245   -0.0908084 
