24
Energy =
C     0.0301592    1.7156403   -3.0958355 
C     0.7086560    2.6654872   -2.4220026 
C     1.0929457    2.4310428   -1.1432667 
C    -0.2685206    0.5335392   -2.5027704 
C     0.1080012    0.2741140   -1.2126957 
C     0.7986330    1.2497283   -0.5412508 
O     0.9976200    3.8723039   -3.0663220 
H     1.5108718    4.5347964   -2.4947980 
H     1.1380020    1.1480859    0.4684933 
H    -0.8165817   -0.2098936   -3.0780373 
H    -0.2714844    1.9138118   -4.1192480 
H     1.6393276    3.1908859   -0.5940100 
C    -0.2943525   -1.1079744   -0.6674180 
C    -0.0211200   -1.6548420    0.7827292 
H     0.1133997   -1.8456237   -1.3975190 
H    -1.3960914   -1.1737550   -0.8143412 
C     0.7615380   -2.9640656    0.7642809 
O     0.3911483   -4.0039120    1.6051114 
O     1.8712524   -3.1207057   -0.0565964 
H     2.6699196   -2.6917796    0.3869884 
N     0.5673530   -0.6747714    1.7067439 
H    -1.0152403   -1.9516442    1.1968021 
H     0.3400211   -0.9555944    2.6921875 
H     1.6128071   -0.7129189    1.6395492 
