24
Energy =
C     2.2834069    2.2042493   -0.9775103 
C     1.1217187    2.8928662   -1.0686313 
C    -0.0542691    2.2740987   -0.7836226 
C     2.2913577    0.9032737   -0.5912435 
C     1.1224868    0.2762426   -0.3002382 
C    -0.0722896    0.9475951   -0.4395464 
O     1.1674578    4.2391701   -1.4466523 
H     0.2548932    4.6749253   -1.5246296 
H    -1.1373112    0.3435213   -0.0419966 
H     3.2363418    0.3726196   -0.5198358 
H     3.2114223    2.7139420   -1.2122896 
H    -0.9885883    2.8199528   -0.8374025 
C     1.0731095   -1.1775144    0.1296733 
C     0.2705971   -2.0512694   -0.8728671 
H     0.5894024   -1.2309417    1.1293930 
H     2.0981325   -1.5887807    0.2522635 
C    -1.0624091   -1.4087796   -1.2712747 
O    -1.2520319   -0.0197520   -1.1336780 
O    -2.0696746   -2.1623106   -1.8493192 
H    -1.8076383   -2.3902093   -2.7967066 
N     1.1154161   -2.3172889   -2.0505744 
H     0.0045647   -3.0136998   -0.3771769 
H     1.9431046   -2.8896032   -1.7626087 
H     0.5861569   -2.9096133   -2.7326491 
