24
Energy =
C     1.4551168    2.5233474   -1.4433466 
C     0.8004186    2.9466739   -0.3384276 
C     0.4468363    2.0476179    0.6187414 
C     1.7646784    1.2113081   -1.5991891 
C     1.4191741    0.3079348   -0.6407836 
C     0.7517714    0.7338783    0.4669911 
O     0.5036179    4.3076531   -0.2114872 
H     0.0011765    4.5431348    0.6372720 
H     0.4577389    0.0266561    1.2384101 
H     2.2830632    0.8903797   -2.5003547 
H     1.7240288    3.2484610   -2.2038922 
H    -0.0822023    2.3771185    1.5064956 
C     1.7393828   -1.1614448   -0.8174888 
C     0.5515515   -1.9400656   -1.4372661 
H     1.9966812   -1.5950809    0.1741844 
H     2.6431929   -1.2924601   -1.4574068 
C     0.2429903   -1.4878674   -2.8564935 
O     1.2620827   -1.1482742   -3.7396300 
O    -1.0697232   -1.4677849   -3.3052377 
H    -1.3343902   -2.4129849   -3.5418136 
N     0.8113203   -3.3964367   -1.4074382 
H    -0.3706442   -1.7032768   -0.8539022 
H     1.6842078   -3.6471007   -0.8849070 
H     0.0203069   -3.8904516   -0.9303439 
