24
Energy =
C    -0.5186086    2.3876664   -1.2056718 
C     0.5643148    2.8814016   -1.8475113 
C     1.7442956    2.2076661   -1.7919403 
C    -0.4321426    1.2280653   -0.5053759 
C     0.7487117    0.5545783   -0.4390555 
C     1.8358417    1.0465959   -1.0939308 
O     0.4347185    4.0781492   -2.5580003 
H     1.2859254    4.3892809   -3.0130231 
H     2.7840133    0.5148297   -1.0626821 
H    -1.3136774    0.8271349   -0.0078598 
H    -1.4565153    2.9308472   -1.2646691 
H     2.6147782    2.5965351   -2.3084108 
C     0.8393023   -0.7477364    0.3242349 
C     0.4783195   -1.9594021   -0.5550564 
H     0.1575024   -0.7270665    1.2053959 
H     1.8670779   -0.8719302    0.7343218 
C     0.7635309   -3.2586898    0.1864439 
O     0.4022711   -3.4202893    1.5201899 
O     1.3897749   -4.3059599   -0.4756845 
H     1.4760256   -5.0846432    0.1649976 
N    -0.9364818   -1.8480979   -0.9700892 
H     1.1468565   -1.9829881   -1.4488602 
H    -0.9897947   -1.2612283   -1.8358278 
H    -1.2946660   -2.7921965   -1.2569680 
