24
Energy =
C    -0.1463656    2.1059841    0.3836793 
C     0.2769511    3.0003302   -0.5396029 
C     1.1675148    2.6249268   -1.4862944 
C     0.3324862    0.8362589    0.3729309 
C     1.2364609    0.4530045   -0.5714967 
C     1.6474460    1.3558153   -1.5058074 
O    -0.2091862    4.3048462   -0.5217414 
H     0.3836071    4.9025526    0.0435750 
H     2.3539438    1.0632161   -2.2784762 
H    -0.0223651    0.1280939    1.1179206 
H    -0.8755144    2.4127677    1.1256688 
H     1.4850306    3.3463494   -2.2311242 
C     1.7581734   -0.9696478   -0.5981612 
C     0.8600549   -1.9300094   -1.4077079 
H     1.8693954   -1.3433934    0.4437453 
H     2.7812921   -0.9877620   -1.0373372 
C    -0.5720971   -2.0084512   -0.8631243 
O    -1.6254294   -1.4506077   -1.5778328 
O    -0.8468573   -2.6273094    0.3564980 
H    -0.0127248   -2.9883201    0.7927691 
N     0.9279401   -1.5647599   -2.8348080 
H     1.2784999   -2.9564416   -1.2941927 
H     0.4384727   -2.3016753   -3.3974753 
H     0.3724648   -0.6888589   -2.9952314 
