24
Energy =
C     0.8687815    2.5448897   -1.6375018 
C    -0.0862497    2.8292260   -0.7227154 
C    -0.3855235    1.9318867    0.2441443 
C     1.5403538    1.3666763   -1.5791580 
C     1.2546033    0.4637430   -0.5996555 
C     0.2798625    0.7503594    0.3079696 
O    -0.7665436    4.0418544   -0.7803370 
H    -0.2914347    4.7470028   -0.2281980 
H     0.0234350    0.0356615    1.0859339 
H     2.2985485    1.1512281   -2.3265462 
H     1.0835867    3.2646920   -2.4198224 
H    -1.1666732    2.1659922    0.9592787 
C     1.9808423   -0.8628983   -0.5401657 
C     1.1826235   -1.9909002   -1.2396453 
H     2.1433494   -1.1325019    0.5276662 
H     2.9935369   -0.7786082   -0.9943163 
C     0.9945368   -1.7174158   -2.7290575 
O    -0.2170149   -1.2309835   -3.1990867 
O     2.0405913   -1.9085456   -3.6248440 
H     2.6690277   -1.1220592   -3.5740834 
N     1.8047878   -3.3119623   -0.9725161 
H     0.1477423   -2.0096393   -0.8234125 
H     2.1511134   -3.7573068   -1.8591609 
H     2.6384812   -3.2485709   -0.3427101 
