24
Energy =
C     1.9365348    2.5561693   -1.4548706 
C     0.7488131    2.8912959   -1.9974631 
C    -0.2691447    2.0070500   -1.9867195 
C     2.1120510    1.3283834   -0.9064396 
C     1.0965298    0.4097911   -0.8878442 
C    -0.1049541    0.7748401   -1.4394364 
O     0.5700456    4.1510373   -2.5589122 
H     0.8051884    4.1418232   -3.5454710 
H    -0.9616766    0.1345534   -1.4731938 
H     3.0817793    1.0871557   -0.4755917 
H     2.7440760    3.2811471   -1.4592465 
H    -1.2219164    2.2969639   -2.4176782 
C     1.4336557   -0.9410201   -0.2320559 
C     0.4769759   -2.1822886   -0.1051706 
H     1.8185245   -0.6946878    0.7841814 
H     2.3367408   -1.3107555   -0.7692986 
C     0.3251094   -2.6278254    1.3469254 
O     1.1869440   -3.5818534    1.8683487 
O    -0.6022114   -2.0253515    2.1877349 
H    -0.2261777   -1.1480534    2.5153770 
N    -0.8199530   -2.0287977   -0.7814647 
H     1.0056133   -3.0399870   -0.5878189 
H    -1.2134747   -2.9803946   -0.9795282 
H    -1.5057807   -1.5891789   -0.1187476 
