24
Energy =
C     0.9386774    2.6620933   -1.2569214 
C    -0.2132583    2.7866004   -0.5588929 
C    -0.6603563    1.7442540    0.1911871 
C     1.6501684    1.5069947   -1.2107473 
C     1.2124605    0.4643681   -0.4524760 
C     0.0478014    0.5873793    0.2414154 
O    -0.9178792    3.9924465   -0.6318535 
H    -1.7724640    4.0050108   -0.0859604 
H    -0.3266007   -0.2453491    0.8311548 
H     2.5691542    1.4248287   -1.7858032 
H     1.2816430    3.4988811   -1.8559795 
H    -1.5871809    1.8314811    0.7478779 
C     1.9912967   -0.8322532   -0.4151398 
C     1.4624582   -1.8389355   -1.4569121 
H     1.9441855   -1.2800448    0.6023367 
H     3.0707793   -0.6268957   -0.6010353 
C     2.4478259   -2.9775225   -1.6830746 
O     2.6765126   -3.4475725   -2.9678749 
O     3.0952179   -3.5846271   -0.6141840 
H     2.4600234   -4.2247883   -0.1625406 
N     0.1322711   -2.3205124   -1.0382341 
H     1.3761935   -1.3204318   -2.4422475 
H    -0.2766889   -2.9040704   -1.8081603 
H     0.2237013   -2.9444386   -0.2016032 
