24
Energy =
C     0.0171601    2.0958176    0.6806882 
C     0.0525663    2.8620681   -0.4418668 
C     0.6603268    2.3906067   -1.5537763 
C     0.5871895    0.8640847    0.6845020 
C     1.1954183    0.3849748   -0.4368268 
C     1.2316597    1.1596754   -1.5562809 
O    -0.5254954    4.1348646   -0.4799889 
H    -0.9591501    4.4187458    0.3919200 
H     1.7206520    0.8015017   -2.4582361 
H     0.5499786    0.2656443    1.5913554 
H    -0.4663959    2.4667966    1.5780176 
H     0.6842954    3.0138023   -2.4412011 
C     1.8345550   -0.9909008   -0.4406424 
C     1.0722365   -2.0077373   -1.3413136 
H     1.9075495   -1.4017544    0.5926344 
H     2.8715284   -0.8456403   -0.8085589 
C     1.7174091   -3.4021411   -1.4277926 
O     0.9352610   -4.4696072   -1.8540675 
O     3.0762769   -3.6516908   -1.2070193 
H     3.6190903   -2.8377192   -0.9853417 
N    -0.3359701   -2.1415100   -0.9021890 
H     1.1031558   -1.6303371   -2.3891951 
H    -0.6042436   -1.4984018   -0.1230237 
H    -0.9832613   -1.9479727   -1.7027864 
