24
Energy =
C    -0.5373401    2.1882232    0.2975775 
C     0.2744693    2.5283434    1.3189598 
C     1.4079753    1.8329531    1.5360340 
C    -0.2262369    1.1424145   -0.5115247 
C     0.9180653    0.4149316   -0.3058923 
C     1.7282766    0.7871619    0.7347576 
O    -0.0523148    3.6017921    2.1412622 
H    -0.6108871    3.2928971    2.9297145 
H     2.6493033    0.2441645    0.9367873 
H    -0.9275300    0.9468182   -1.2915874 
H    -1.4408828    2.7653423    0.1303270 
H     2.0582760    2.1230359    2.3546936 
C     1.4147911   -0.7904584   -1.1281479 
C     0.7223698   -1.4894430   -2.3627389 
H     1.6142056   -1.5842489   -0.3698972 
H     2.4329492   -0.5047772   -1.4779839 
C     0.5971444   -2.9997908   -2.1423220 
O    -0.4973318   -3.5067444   -1.4512488 
O     1.6062249   -3.8825483   -2.5338024 
H     2.3840538   -3.4174968   -2.9755862 
N    -0.5616014   -0.9251283   -2.7864843 
H     1.4095010   -1.3913869   -3.2338521 
H    -1.2853498   -1.0280491   -2.0341378 
H    -0.4500284    0.0518879   -3.1432853 
