24
Energy =
C     1.0267234    2.3401306    0.4209360 
C     0.1669021    2.8695491   -0.4786724 
C    -0.1709995    2.1557053   -1.5855102 
C     1.5523666    1.1039722    0.2263191 
C     1.2161458    0.3840342   -0.8794802 
C     0.3514906    0.9190855   -1.7855363 
O    -0.3524544    4.1466424   -0.2426241 
H    -0.9928791    4.4709609   -0.9591056 
H     0.0728964    0.3604761   -2.6760398 
H     2.2416192    0.6995182    0.9626791 
H     1.2881494    2.9201312    1.2994092 
H    -0.8595892    2.5723448   -2.3128292 
C     1.7923570   -0.9979150   -1.1042806 
C     0.7519946   -2.1191425   -0.8511076 
H     2.6866882   -1.1739394   -0.4642261 
H     2.1641668   -1.0573033   -2.1531875 
C     1.2500463   -3.4428905   -1.4175979 
O     0.4769148   -4.1425890   -2.3332575 
O     2.4938214   -3.9456587   -1.0557152 
H     2.4161459   -4.4039248   -0.1603703 
N     0.3827229   -2.2036978    0.5838861 
H    -0.1722810   -1.8959450   -1.4328945 
H     0.6196616   -3.1354036    0.9995511 
H     0.8628124   -1.4827067    1.1706839 
