24
Energy =
C     2.3634456    2.4392319   -0.4568462 
C     1.2246745    3.1555802   -0.5426381 
C     0.0526857    2.5305446   -0.7756804 
C     2.3309698    1.0905287   -0.5945759 
C     1.1532336    0.4303583   -0.8227195 
C     0.0091416    1.1794971   -0.9171389 
O     1.2587023    4.5386611   -0.4021886 
H     1.1216306    4.8043807    0.5669530 
H    -0.9570860    0.7578879   -1.1030232 
H     3.2665612    0.5394553   -0.5222524 
H     3.3020406    2.9548916   -0.2815473 
H    -0.8517135    3.1256673   -0.8537578 
C     1.2624361   -1.0978681   -0.9666276 
C     0.0715375   -2.1046564   -1.1733761 
H     1.8416309   -1.4325411   -0.0747423 
H     1.9637696   -1.2730940   -1.8137241 
C     0.1777479   -3.2718414   -0.1896181 
O     1.1224982   -4.2657205   -0.4049756 
O    -0.5886938   -3.3129430    0.9680957 
H    -0.1273656   -2.7642094    1.6778746 
N    -1.2594944   -1.4717303   -1.1617044 
H     0.2194417   -2.5958597   -2.1657977 
H    -1.5461919   -1.2784071   -2.1512252 
H    -1.9845077   -2.1371139   -0.7933248 
