24
Energy =
C    -0.5909649    0.5652561    1.3145152 
C    -1.1744024    1.6643924    0.7856557 
C    -0.6765488    2.2174703   -0.3437297 
C     0.4885275    0.0083160    0.7093734 
C     0.9893260    0.5501466   -0.4375949 
C     0.4021849    1.6655917   -0.9563205 
O    -2.2804862    2.2330963    1.4092080 
H    -3.1399584    1.8426280    1.0385572 
H     0.7929393    2.1282580   -1.8584683 
H     0.9451113   -0.8759369    1.1495257 
H    -0.9939767    0.1374415    2.2263458 
H    -1.1461510    3.1083142   -0.7469195 
C     2.1936616   -0.0749075   -1.1182740 
C     1.8485387   -1.3092380   -1.9930402 
H     2.9300929   -0.3764008   -0.3377569 
H     2.7203111    0.6785017   -1.7448439 
C     1.1857907   -2.4232917   -1.1816614 
O     1.9827348   -3.2183061   -0.3679855 
O    -0.1949079   -2.6080254   -1.1456447 
H    -0.6494452   -1.9687178   -1.7796298 
N     1.0651583   -0.9310632   -3.1933066 
H     2.8182324   -1.7589095   -2.3177064 
H     0.7789670    0.0753400   -3.1900191 
H     1.6483917   -1.0653059   -4.0542583 
