24
Energy =
C     0.8516722    1.7530921    0.9848846 
C     0.6604905    2.7901473    0.1377964 
C     0.8489185    2.6220470   -1.1907761 
C     1.2418423    0.5443136    0.5060925 
C     1.4438866    0.3685631   -0.8301961 
C     1.2432956    1.4170504   -1.6767903 
O     0.2618383    4.0279155    0.6325384 
H     1.0680035    4.5973355    0.8641642 
H     1.3755770    1.2914645   -2.7492924 
H     1.3895430   -0.2806289    1.1983424 
H     0.6840254    1.8987951    2.0465485 
H     0.6710037    3.4567494   -1.8603148 
C     1.8784986   -0.9844286   -1.3577229 
C     0.6977468   -1.9928051   -1.4584426 
H     2.6596725   -1.3713070   -0.6672108 
H     2.3725516   -0.8880812   -2.3514196 
C    -0.1695628   -1.7616541   -2.6971640 
O    -0.4268246   -0.4775352   -3.1584880 
O    -0.8263718   -2.8190047   -3.3124666 
H    -1.6749787   -3.0104106   -2.8043958 
N     1.2045871   -3.3838996   -1.4374295 
H     0.0143894   -1.8348078   -0.5919792 
H     2.2358069   -3.4580012   -1.2752620 
H     0.7300853   -3.9290899   -0.6799545 
