24
Energy =
C     1.2947606    1.5430331    1.0988405 
C     0.0511602    2.0706755    1.0339562 
C    -0.7229302    1.8333483   -0.0581328 
C     1.7758569    0.7861692    0.0798524 
C     1.0093737    0.5545246   -1.0222059 
C    -0.2466611    1.0768955   -1.0798729 
O    -0.4060875    2.8520031    2.0999756 
H    -1.3594583    3.1798760    1.9921431 
H    -0.8805328    0.8738124   -1.9389593 
H     2.7722332    0.3595196    0.1620867 
H     1.8975675    1.7285745    1.9813553 
H    -1.7262454    2.2417237   -0.1133026 
C     1.5366325   -0.3028620   -2.1579185 
C     0.9179349   -1.7157568   -2.1736768 
H     2.6438469   -0.3882563   -2.0925114 
H     1.3284431    0.2024178   -3.1262899 
C     1.0857923   -2.4158685   -0.8167955 
O     0.0298212   -2.4656891    0.0861307 
O     2.3109794   -2.9711840   -0.4420066 
H     3.0036008   -2.8899132   -1.1704491 
N    -0.4877440   -1.6183927   -2.6110584 
H     1.4767103   -2.3312829   -2.9156895 
H    -0.5162118   -1.4988813   -3.6512405 
H    -0.9816639   -2.5224438   -2.4105012 
