24
Energy =
C     0.2126290    2.2996156   -1.7509080 
C    -0.7581607    2.3859477   -0.8028449 
C    -0.7712015    1.5046403    0.2229679 
C     1.1647167    1.3356417   -1.6663335 
C     1.1557062    0.4518954   -0.6298168 
C     0.1767134    0.5372957    0.3114979 
O    -1.7541738    3.3654125   -0.8605209 
H    -1.6780593    3.9873640   -1.6583115 
H     0.1452497   -0.1657647    1.1401433 
H     1.9298455    1.2681267   -2.4398601 
H     0.2266020    2.9982776   -2.5808834 
H    -1.5532642    1.5830305    0.9706333 
C     2.1970422   -0.6435697   -0.5484970 
C     1.7124253   -1.9510449   -1.2205345 
H     2.4409285   -0.8424604    0.5187801 
H     3.1474555   -0.3135539   -1.0296841 
C     1.4111997   -1.7472105   -2.6992660 
O     2.3103348   -1.0758889   -3.5209427 
O     0.1924688   -2.1503173   -3.2284092 
H    -0.5093725   -1.4706437   -2.9789458 
N     2.7087167   -3.0279882   -1.0404820 
H     0.7478782   -2.2530970   -0.7486251 
H     3.5369646   -2.7329051   -0.4715888 
H     2.2708363   -3.8450414   -0.5533232 
