24
Energy =
C    -0.3552719    1.8432381    0.5311551 
C    -0.0894431    2.7846027   -0.4133822 
C     0.8147652    2.5207162   -1.3835101 
C     0.2862052    0.6475985    0.5023586 
C     1.2051260    0.3853186   -0.4677201 
C     1.4611628    1.3279326   -1.4160831 
O    -0.7293270    4.0285208   -0.4097569 
H    -1.4069904    4.1422408    0.3360970 
H     2.1758955    1.1343183   -2.2109080 
H     0.0563553   -0.0977978    1.2598800 
H    -1.0834420    2.0437173    1.3095780 
H     1.0096260    3.2761389   -2.1367046 
C     1.9011187   -0.9576150   -0.5121914 
C     1.0740985   -2.0066504   -1.2785499 
H     2.0691013   -1.3220968    0.5266397 
H     2.9140059   -0.8628354   -0.9618353 
C     0.9595184   -1.6833423   -2.7636733 
O    -0.2207248   -1.1590956   -3.2698614 
O     2.0363735   -1.8776962   -3.6209472 
H     2.6941981   -1.1222852   -3.5082429 
N     1.6709653   -3.3322976   -1.0365235 
H     0.0295543   -2.0019385   -0.8836115 
H     1.0441313   -4.0653224   -1.4480396 
H     2.5761041   -3.4102718   -1.5627720 
