24
Energy =
C     1.1358842    2.6389823   -1.3935800 
C     0.5538614    3.0118229   -0.2302053 
C     0.3166535    2.0924756    0.7335552 
C     1.4786366    1.3414634   -1.6001763 
C     1.2468481    0.4117325   -0.6325324 
C     0.6565837    0.7933329    0.5348677 
O     0.2031569    4.3419543   -0.0229504 
H    -0.7447146    4.5164089   -0.3382327 
H     0.4502547    0.0587094    1.3112015 
H     1.9364420    1.0526583   -2.5430581 
H     1.3249195    3.3883172   -2.1549777 
H    -0.1456100    2.4070048    1.6631642 
C     1.6074360   -1.0393043   -0.8622948 
C     0.5205528   -1.9612983   -1.5264973 
H     1.9355428   -1.4678821    0.1142648 
H     2.5317952   -1.0793878   -1.4813455 
C     0.3362438   -3.2404192   -0.7204586 
O    -0.0960268   -3.1807779    0.5975031 
O     0.5810550   -4.4772596   -1.2987269 
H    -0.2155761   -4.7365031   -1.8624806 
N    -0.7772297   -1.3058716   -1.8494139 
H     0.9488672   -2.3166390   -2.4921812 
H    -1.5808914   -1.8095847   -1.4006663 
H    -0.8703563   -0.3214140   -1.5233206 
