24
Energy =
C    -0.7701062    2.0867896   -0.7619793 
C     0.1016078    3.0736254   -1.0636978 
C     1.4368090    2.8151217   -1.0727959 
C    -0.3238219    0.8185187   -0.4957484 
C     1.0312114    0.5749460   -0.4664530 
C     1.9002452    1.5771773   -0.7664531 
O    -0.3983317    4.3496858   -1.3463744 
H     0.3152260    5.0283420   -1.5879714 
H     2.9719777    1.3994282   -0.7570214 
H    -1.0988234   -0.1185331   -0.0936207 
H    -1.8306850    2.3053123   -0.7479206 
H     2.1405563    3.6053749   -1.3107887 
C     1.5273940   -0.8075267   -0.0610072 
C     0.7273784   -2.0310326   -0.6648388 
H     1.4646396   -0.8587056    1.0480081 
H     2.6122616   -0.8777548   -0.2823075 
C    -0.5028410   -1.6381112   -1.5010495 
O    -1.1727929   -0.4335958   -1.2045666 
O    -1.0206705   -2.4368169   -2.5176372 
H    -0.4518218   -3.2498509   -2.6951261 
N     1.6194686   -2.9435041   -1.4184490 
H     0.2806132   -2.5858378    0.1931250 
H     2.6309105   -2.6838007   -1.3818770 
H     1.5450299   -3.9140381   -1.0319371 
