24
Energy =
C     1.3992994    2.4892644    0.0495320 
C     0.0922328    2.7599195    0.2651842 
C    -0.8267029    1.7723257    0.1785385 
C     1.7962095    1.2237544   -0.2404323 
C     0.8795593    0.2172516   -0.3205459 
C    -0.4380592    0.5020618   -0.1046271 
O    -0.3084786    4.0565547    0.5689720 
H    -0.3202800    4.2079017    1.5714713 
H    -1.1901908   -0.2795316   -0.2007640 
H     2.8519862    1.0296325   -0.4115977 
H     2.1227207    3.2963304    0.1055081 
H    -1.8746585    2.0151809    0.3228910 
C     1.3301198   -1.2065053   -0.6166863 
C     0.7273826   -1.8663225   -1.8933969 
H     1.0815612   -1.8362680    0.2652727 
H     2.4409191   -1.2479962   -0.6796235 
C    -0.1964054   -0.9675528   -2.7131866 
O    -1.5660431   -1.1716766   -2.6220117 
O     0.2640433    0.1292322   -3.4365102 
H     1.2566884    0.2684206   -3.3374664 
N     1.8095088   -2.4604390   -2.6988134 
H     0.0655291   -2.6987426   -1.5542650 
H     1.3814362   -2.9975774   -3.4919500 
H     2.3810378   -1.7058397   -3.1450343 
