24
Energy =
C     0.1696988    2.1735959    0.4266419 
C    -0.2968574    2.7278193   -0.7241785 
C    -0.0110713    2.1449196   -1.9106392 
C     0.9189299    1.0426130    0.3842704 
C     1.2115503    0.4582034   -0.8104152 
C     0.7370604    1.0135593   -1.9589255 
O    -1.0725766    3.8913483   -0.7156776 
H    -1.2387037    4.2709364    0.2100233 
H     0.9542095    0.5572464   -2.9219847 
H     1.2779449    0.6047794    1.3127688 
H    -0.0575784    2.6321741    1.3829930 
H    -0.3906651    2.5962901   -2.8209776 
C     2.0292770   -0.8136399   -0.8636986 
C     1.1375674   -2.0695263   -0.9595751 
H     2.6840119   -0.8955240    0.0328801 
H     2.7132296   -0.7621684   -1.7420590 
C     1.9734414   -3.2915824   -1.3255457 
O     2.6842555   -3.3069680   -2.5180335 
O     2.0310139   -4.4043572   -0.4961923 
H     2.7484710   -4.2515768    0.1968043 
N     0.4168646   -2.2430343    0.3162864 
H     0.4121825   -1.9502077   -1.7982337 
H    -0.3526707   -1.5350844    0.3698422 
H    -0.0648064   -3.1754654    0.3188963 
