24
Energy =
C     1.4626830    2.6367954    0.3458108 
C     0.1993526    3.0366704    0.0988971 
C    -0.6632098    2.1856149   -0.5095442 
C     1.8717521    1.3941211   -0.0101471 
C     1.0194325    0.5180976   -0.6252177 
C    -0.2612061    0.9384008   -0.8694318 
O    -0.1867248    4.3256908    0.4791736 
H    -1.1520455    4.5493709    0.2631717 
H    -0.9989257    0.3274441   -1.3466383 
H     2.8984082    1.1055545    0.2052561 
H     2.1446973    3.3253209    0.8336510 
H    -1.6816899    2.5013338   -0.7117388 
C     1.6134546   -0.8580464   -0.9721387 
C     0.8708965   -2.0402031   -1.6961853 
H     2.0297680   -1.2505484   -0.0151251 
H     2.5165771   -0.6440973   -1.5874566 
C     0.8766270   -3.3086194   -0.8490660 
O     0.1125431   -3.3907819    0.3094887 
O     1.6796683   -4.3819764   -1.2087839 
H     1.5536577   -5.1222959   -0.5299267 
N    -0.4744773   -1.7053118   -2.1917508 
H     1.4993490   -2.3151611   -2.5782603 
H    -0.7064970   -2.3379942   -2.9952646 
H    -1.1816725   -1.9363477   -1.4493795 
