24
Energy =
C    -0.6089237    2.0721375   -0.2938676 
C     0.3422694    2.9527944   -0.6806560 
C     1.6081231    2.5291450   -0.9029264 
C    -0.2926856    0.7639524   -0.1153930 
C     0.9813509    0.3313517   -0.3280187 
C     1.9312919    1.2216670   -0.7289119 
O     0.0157124    4.2924069   -0.8623348 
H     0.1463827    4.8135987   -0.0023143 
H     2.9510330    0.8956235   -0.9161517 
H    -1.0640192    0.0479501    0.1677744 
H    -1.6245844    2.4221094   -0.1416305 
H     2.3560540    3.2449314   -1.2273984 
C     1.3217473   -1.1319529   -0.1271871 
C     0.7478875   -2.0997354   -1.2118684 
H     0.9638734   -1.4145854    0.8896666 
H     2.4248686   -1.2662627   -0.0770331 
C     0.0835597   -3.3091458   -0.5649980 
O    -0.8390613   -3.1486631    0.4624452 
O     0.3778914   -4.5887433   -1.0147815 
H    -0.1440335   -4.7624076   -1.8610623 
N    -0.1731489   -1.4052666   -2.1363569 
H     1.6045242   -2.5157951   -1.7940191 
H     0.3774179   -0.7510458   -2.7431406 
H    -0.6068729   -2.0982085   -2.7924561 
