24
Energy =
C    -1.2668539    1.7466752   -0.7423259 
C    -1.1937890    1.7598048    0.6152083 
C    -0.1155568    1.2245499    1.2313404 
C    -0.2622687    1.2016644   -1.4745407 
C     0.8267307    0.6664459   -0.8557025 
C     0.8932409    0.6812276    0.5043115 
O    -2.2100300    2.3174990    1.3979547 
H    -2.9925959    2.6798676    0.8648589 
H     1.7456952    0.2468777    1.0220146 
H    -0.3377441    1.1925805   -2.5583972 
H    -2.1298918    2.1702870   -1.2440848 
H    -0.0727473    1.2315499    2.3151069 
C     1.9459090    0.0487562   -1.6701752 
C     1.8034341   -1.4830152   -1.8556506 
H     2.9210074    0.2648634   -1.1748850 
H     2.0052008    0.5344846   -2.6686744 
C     1.9304199   -2.2363159   -0.5369791 
O     0.8217531   -2.4764778    0.2658571 
O     3.1890637   -2.5929812   -0.0686394 
H     3.4798335   -3.4421452   -0.5319321 
N     0.5692756   -1.8253151   -2.5841306 
H     2.6652263   -1.8260481   -2.4707364 
H    -0.2684535   -1.6177047   -1.9889589 
H     0.4934635   -1.2538912   -3.4573634 
