24
Energy =
C     0.1379738    2.2104682   -0.3050757 
C     0.9587560    2.4958969    0.7319596 
C     2.0192817    1.6819287    0.9949532 
C     0.3755654    1.1189803   -1.0713987 
C     1.4160569    0.2940427   -0.8116058 
C     2.2509013    0.5869955    0.2221136 
O     0.6925677    3.6274689    1.5089615 
H     1.3526028    3.7803391    2.2634153 
H     3.1082924   -0.0463968    0.4349652 
H    -0.2800053    0.7692777   -1.9868100 
H    -0.7046293    2.8608396   -0.5140561 
H     2.6850902    1.9090644    1.8200864 
C     1.6731236   -0.8911608   -1.7315474 
C     0.3796285   -1.6511543   -2.1731637 
H     2.3554149   -1.6085891   -1.2247913 
H     2.2117237   -0.5324039   -2.6375010 
C    -0.5148236   -0.8451141   -3.1497063 
O    -0.8991745    0.4569641   -2.8384132 
O    -1.0412055   -1.3903345   -4.3138336 
H    -0.6928217   -2.3225651   -4.4671872 
N     0.7555667   -2.9653872   -2.7224869 
H    -0.2650342   -1.8155239   -1.2790875 
H     1.4483962   -2.8300532   -3.4949281 
H     1.2182879   -3.5494397   -1.9830944 
