24
Energy =
C     1.0005143    2.4599378    1.0300083 
C     1.3545166    3.0894728   -0.1082591 
C     1.4868299    2.3876079   -1.2520263 
C     0.7678591    1.1239379    1.0248001 
C     0.8856938    0.3891566   -0.1249297 
C     1.2577699    1.0481290   -1.2681797 
O     1.5940156    4.4592133   -0.1018851 
H     0.7442272    4.9721933   -0.3102272 
H     1.3858122    0.5620216   -2.2132045 
H     0.4848023    0.6440350    1.9594305 
H     0.9087572    3.0338399    1.9464189 
H     1.7836261    2.9098294   -2.1561143 
C     0.6013723   -1.1171063    0.0135353 
C     0.5904280   -2.1742490   -1.1524227 
H    -0.3834690   -1.1747356    0.5325799 
H     1.3242280   -1.4955772    0.7703239 
C    -0.6866770   -3.0155817   -1.1247627 
O    -0.6081595   -4.3999694   -1.2187953 
O    -1.9377119   -2.4179347   -1.0312025 
H    -2.6438342   -3.1416025   -1.0648567 
N     0.8460488   -1.6037538   -2.4871014 
H     1.3949623   -2.9159524   -0.9275578 
H     1.8638195   -1.7180511   -2.7100125 
H     0.3410438   -2.1522286   -3.2264515 
