24
Energy =
C     0.8166734    2.6269339   -0.0793927 
C    -0.4652469    2.7643834   -0.4903760 
C    -1.2314676    1.6687957   -0.6970436 
C     1.3349917    1.3909094    0.1368214 
C     0.5648056    0.2841316   -0.0556246 
C    -0.7210047    0.4295616   -0.4823740 
O    -0.9916558    4.0324676   -0.7136738 
H    -1.4209225    4.3964705    0.1300099 
H    -1.3409728   -0.4457797   -0.6656424 
H     2.3691502    1.2934779    0.4575314 
H     1.4241386    3.5138230    0.0668245 
H    -2.2515327    1.7938711   -1.0440283 
C     1.1412237   -1.0977739    0.1596820 
C     1.7976604   -1.8102883   -1.0782701 
H     0.3365601   -1.7372422    0.5938993 
H     1.8963325   -1.0457485    0.9758316 
C     1.2044895   -3.1939111   -1.2781884 
O     1.9980816   -4.3249489   -1.1392244 
O    -0.1421384   -3.3448834   -1.5806830 
H    -0.2410026   -3.2715449   -2.5826888 
N     1.7558123   -1.0588771   -2.3565803 
H     2.8655537   -1.9975956   -0.8126815 
H     1.2959681   -0.1253026   -2.3206728 
H     2.7311308   -0.8933235   -2.7012650 
