24
Energy =
C     1.3076206    2.4615357   -1.6148652 
C     0.0490265    2.8505629   -1.3068282 
C    -0.7451397    2.0462344   -0.5636194 
C     1.7826109    1.2716974   -1.1661468 
C     0.9937775    0.4629906   -0.4047910 
C    -0.2784466    0.8533583   -0.1140517 
O    -0.4326609    4.0742801   -1.7615380 
H    -0.2564490    4.8047192   -1.0808517 
H    -0.9291736    0.2128336    0.4751264 
H     2.7926783    0.9666987   -1.4305062 
H     1.9269902    3.1059757   -2.2295600 
H    -1.7579129    2.3635310   -0.3408310 
C     1.5097423   -0.8756577    0.0763705 
C     1.1581381   -2.0151799   -0.9037334 
H     1.0793369   -1.0973254    1.0783029 
H     2.6121361   -0.8341011    0.2279317 
C     1.8116007   -1.8068285   -2.2715309 
O     1.0210178   -1.4433274   -3.3545565 
O     3.1867479   -1.9446892   -2.4568896 
H     3.6289068   -2.2672676   -1.6080748 
N     1.5627082   -3.2950905   -0.2946206 
H     0.0563498   -2.0170712   -1.0844124 
H     0.9889504   -3.4673488    0.5653066 
H     1.3318775   -4.0804980   -0.9509991 
