24
Energy =
C    -0.1746262    0.9063436    1.4475332 
C    -0.1987173    2.1477906    0.9097359 
C     0.4472764    2.3950984   -0.2526735 
C     0.4913730   -0.0963925    0.8199632 
C     1.1465138    0.1458652   -0.3496576 
C     1.1170830    1.3987868   -0.8847900 
O    -0.8843212    3.1716495    1.5552057 
H    -1.8487812    3.2068878    1.2414256 
H     1.6105905    1.6009318   -1.8333770 
H     0.4898397   -1.0914550    1.2566562 
H    -0.6961103    0.7234814    2.3810405 
H     0.4159282    3.3935692   -0.6751713 
C     1.8612291   -0.9742181   -1.0799771 
C     1.0655683   -1.5890368   -2.2701860 
H     2.1290170   -1.7836737   -0.3654284 
H     2.8395807   -0.5806524   -1.4390402 
C    -0.3342738   -0.9814699   -2.4749393 
O    -0.5106830    0.0962619   -3.3362722 
O    -1.4384400   -1.4493365   -1.7593101 
H    -1.1908440   -2.1993225   -1.1320792 
N     1.8953124   -1.4941080   -3.4850263 
H     0.8993196   -2.6688516   -2.0511818 
H     2.6884730   -2.1745803   -3.4141414 
H     1.3340302   -1.7878825   -4.3210867 
