24
Energy =
C     1.2428229    2.6406531   -0.6048261 
C    -0.0143988    2.7818846   -0.1261521 
C    -0.7310520    1.6902322    0.2257901 
C     1.7936294    1.4054369   -0.7214094 
C     1.0801649    0.3000533   -0.3665132 
C    -0.1886513    0.4516118    0.1084740 
O    -0.5739733    4.0496259   -0.0017000 
H    -0.3946204    4.4322428    0.9198694 
H    -0.7754285   -0.4169495    0.3949070 
H     2.8000374    1.3079704   -1.1204400 
H     1.8003619    3.5225947   -0.9013345 
H    -1.7424716    1.8180710    0.5957798 
C     1.6857479   -1.0841516   -0.4899569 
C     1.1120408   -1.8919717   -1.6871396 
H     1.4823391   -1.6231465    0.4611651 
H     2.7935965   -1.0271940   -0.5850115 
C     1.6337528   -1.3986839   -3.0364982 
O     1.9486974   -2.2969567   -4.0518075 
O     1.7211300   -0.0386952   -3.3098336 
H     2.0367756    0.0816481   -4.2635804 
N     1.3981658   -3.3339619   -1.5125722 
H     0.0097222   -1.7378796   -1.7342705 
H     1.9176234   -3.5596136   -0.6325877 
H     0.5053964   -3.8808495   -1.5052954 
