24
Energy =
C     0.7735143    2.4946044   -1.2246815 
C    -0.0264359    2.7147047   -0.1559811 
C    -0.2234677    1.7346688    0.7552040 
C     1.3901253    1.2950080   -1.3799123 
C     1.2098603    0.3087495   -0.4572798 
C     0.3900687    0.5327369    0.6071718 
O    -0.6562648    3.9453819    0.0000551 
H    -0.0769296    4.5780379    0.5405937 
H     0.2109983   -0.2538847    1.3357489 
H     2.0222415    1.1297071   -2.2490991 
H     0.9083655    3.2836904   -1.9567727 
H    -0.8838173    1.9185410    1.5957682 
C     1.8768130   -1.0369961   -0.6390055 
C     0.9660993   -2.0193908   -1.3982039 
H     2.1523621   -1.4692592    0.3488073 
H     2.8340861   -0.9059560   -1.1933933 
C     1.7516519   -3.2388324   -1.8511918 
O     2.1550105   -4.2016613   -0.9335956 
O     2.1194759   -3.3732251   -3.1812112 
H     2.6405087   -4.2349495   -3.2857183 
N    -0.1843116   -2.3764619   -0.5454746 
H     0.6016212   -1.5274250   -2.3315693 
H    -0.8650092   -2.9328353   -1.1159679 
H     0.1374546   -3.0177186    0.2207317 
