24
Energy =
C    -0.5168742    2.1457307   -0.4609762 
C    -0.1190142    2.2818015    0.8322392 
C     0.8654613    1.4904839    1.3154662 
C     0.0714151    1.2209588   -1.2620300 
C     1.0651171    0.4265954   -0.7771456 
C     1.4573264    0.5644904    0.5191235 
O    -0.7045963    3.2232059    1.6845110 
H    -1.4326256    3.7797759    1.2497089 
H     2.2425298   -0.0665046    0.9280927 
H    -0.2569987    1.1210712   -2.2940709 
H    -1.3066949    2.7756707   -0.8561823 
H     1.1715194    1.6081661    2.3494090 
C     1.7090534   -0.6138551   -1.6667443 
C     0.8362401   -1.8888095   -1.8108303 
H     2.7167992   -0.8939072   -1.2848674 
H     1.8916151   -0.1581918   -2.6675164 
C     1.3633602   -2.8252011   -2.9028576 
O     2.1445079   -2.3133882   -3.9330816 
O     0.9931730   -4.1675904   -2.9594332 
H     0.4317086   -4.4248923   -2.1603120 
N     0.7252496   -2.5771016   -0.5096497 
H    -0.1809366   -1.6031997   -2.1651077 
H     1.6782546   -2.7589409   -0.1125163 
H     0.2024075   -1.9798969    0.1749271 
