24
Energy =
C     1.1607658    2.6230647   -1.2958456 
C     0.4367635    2.8913284   -0.1853598 
C     0.1367967    1.8985646    0.6829540 
C     1.6012743    1.3609916   -1.5346610 
C     1.3121390    0.3574723   -0.6598796 
C     0.5698044    0.6334730    0.4489464 
O    -0.0080992    4.1868281    0.0591398 
H     0.6710087    4.7012613    0.6087619 
H     0.3155508   -0.1552259    1.1525611 
H     2.1669435    1.1555478   -2.4416252 
H     1.3735308    3.4245563   -1.9953282 
H    -0.4582314    2.1256829    1.5608586 
C     1.7847690   -1.0574881   -0.9213576 
C     0.7084418   -1.9214504   -1.6235653 
H     2.0682867   -1.5180378    0.0509446 
H     2.7231157   -1.0615625   -1.5213985 
C     0.7307720   -1.7148126   -3.1429013 
O     0.6176273   -0.4375439   -3.6735128 
O     0.7938452   -2.7864789   -4.0251901 
H    -0.1054884   -3.2401069   -4.0605680 
N     0.9361649   -3.3283829   -1.2400273 
H    -0.3081568   -1.6090810   -1.2882188 
H     0.6816919   -3.4557670   -0.2322718 
H     0.2927333   -3.9577773   -1.7752886 
