24
Energy =
C    -0.9521218    1.8846760    0.2221500 
C    -0.2013061    2.9355551   -0.1802958 
C     1.0833728    2.7442928   -0.5594579 
C    -0.4168503    0.6383745    0.2570432 
C     0.8784698    0.4388704   -0.1150817 
C     1.6258357    1.5000673   -0.5288407 
O    -0.7532485    4.2122155   -0.2153385 
H    -0.6058814    4.6910246    0.6664473 
H     2.6569834    1.3589555   -0.8424552 
H    -1.0334932   -0.1994181    0.5751275 
H    -1.9850072    2.0487865    0.5092943 
H     1.6684089    3.5946330   -0.8931680 
C     1.4705877   -0.9554198   -0.0933708 
C     1.2541576   -1.8075462   -1.3900975 
H     1.0631449   -1.4884882    0.7976906 
H     2.5620051   -0.8859874    0.1124400 
C     0.6158148   -3.1478969   -1.0727728 
O    -0.7046933   -3.2168996   -0.6379172 
O     1.3743003   -4.3104718   -1.1438929 
H     0.7910221   -5.1012536   -0.9016139 
N     0.4980685   -1.0964567   -2.4394639 
H     2.2525164   -2.0770038   -1.8079346 
H    -0.4668401   -0.8680690   -2.0980836 
H     0.9772164   -0.2032227   -2.6986647 
