24
Energy =
C     0.2374547    2.1282589    0.7169936 
C     0.0834331    2.9575930   -0.3407204 
C     0.5536651    2.5974393   -1.5574645 
C     0.8565990    0.9311053    0.5597089 
C     1.3333734    0.5624681   -0.6620219 
C     1.1738139    1.4016904   -1.7225819 
O    -0.5552479    4.1833640   -0.1758914 
H    -1.5503616    4.0924522   -0.3529179 
H     1.5321906    1.1182471   -2.7085172 
H     0.9541711    0.2642014    1.4125837 
H    -0.1453331    2.4274621    1.6866284 
H     0.4247162    3.2726167   -2.3958653 
C     1.9814108   -0.7933914   -0.8521893 
C     0.9665827   -1.9568418   -1.1325355 
H     2.5662878   -1.0395613    0.0629984 
H     2.7583817   -0.7041534   -1.6411105 
C    -0.5095682   -1.5410234   -1.1044928 
O    -1.2245767   -1.6651000    0.0818071 
O    -1.1442319   -0.9842743   -2.2145227 
H    -0.5180789   -0.9700372   -3.0052928 
N     1.2917224   -2.6807390   -2.3849541 
H     1.0450662   -2.6682150   -0.2749414 
H     2.1137699   -2.2923199   -2.9018489 
H     1.5200854   -3.6815554   -2.1719001 
