24
Energy =
C     0.1079947    1.7613238    0.8749711 
C     0.3158712    2.7607410   -0.0130459 
C     0.9999103    2.5200596   -1.1549301 
C     0.5944574    0.5179161    0.6292530 
C     1.2981649    0.2721725   -0.5107830 
C     1.4911597    1.2800866   -1.4071270 
O    -0.1826774    4.0341786    0.2436493 
H     0.4960254    4.5885021    0.7536314 
H     2.0293873    1.0974420   -2.3355050 
H     0.4130060   -0.2770419    1.3483911 
H    -0.4568128    1.9649577    1.7783571 
H     1.1422152    3.3256429   -1.8671962 
C     1.8210496   -1.1179420   -0.7987176 
C     0.7824698   -1.9802718   -1.5403635 
H     2.0968662   -1.6219115    0.1543865 
H     2.7590256   -1.0650080   -1.3972081 
C     0.4927090   -1.4548104   -2.9368361 
O     1.5307436   -1.1595153   -3.8140542 
O    -0.8181968   -1.2890416   -3.3567909 
H    -0.8112817   -0.9441848   -4.3083402 
N     1.2669579   -3.3720860   -1.5597543 
H    -0.1902187   -1.9334331   -0.9941865 
H     0.5217906   -3.9839428   -1.9722339 
H     2.0892566   -3.4427193   -2.2088179 
