24
Energy =
C     1.5171195    2.8221651   -0.1768246 
C     0.2947383    3.2125116   -0.5900113 
C    -0.5680536    2.3045242   -1.0897431 
C     1.8768818    1.5168918   -0.2537814 
C     1.0161192    0.5729466   -0.7478395 
C    -0.2172397    0.9943296   -1.1727037 
O    -0.0728493    4.5514352   -0.5117735 
H    -0.5201010    4.7490396    0.3768261 
H    -0.9558628    0.3373609   -1.5823712 
H     2.8709408    1.2330658    0.0858321 
H     2.2069176    3.5642185    0.2119513 
H    -1.5435640    2.6386924   -1.4285762 
C     1.5563010   -0.8677602   -0.7871138 
C     0.7604618   -2.1527997   -1.2285839 
H     1.9567229   -1.0492450    0.2377299 
H     2.4682331   -0.8334209   -1.4241917 
C     0.9254965   -3.2774950   -0.2062769 
O     1.2059586   -4.5679185   -0.6336659 
O     0.7311945   -3.0435151    1.1484787 
H    -0.2565711   -3.1183374    1.3422757 
N    -0.6579554   -1.9074562   -1.5437188 
H     1.2625255   -2.5544340   -2.1429599 
H    -0.7312251   -1.6912284   -2.5675818 
H    -1.2147627   -2.7903874   -1.4310396 
