24
Energy =
C     0.0363714    2.4162802   -1.0915043 
C     0.4248407    2.7640964    0.1569115 
C     1.2093088    1.9309646    0.8785942 
C     0.4388337    1.2357381   -1.6268005 
C     1.2368402    0.3963753   -0.9099020 
C     1.6162090    0.7487577    0.3499488 
O     0.0082703    3.9740208    0.7031549 
H     0.6732826    4.7098570    0.4916228 
H     2.2402316    0.0842974    0.9432337 
H     0.1164088    0.9673597   -2.6297187 
H    -0.6027390    3.0878781   -1.6544989 
H     1.5018250    2.2166898    1.8832355 
C     1.6692084   -0.9281955   -1.4974423 
C     0.5700012   -2.0073383   -1.3749159 
H     2.5956425   -1.2981850   -1.0006668 
H     1.9420191   -0.7795515   -2.5670542 
C     0.8847877   -3.2221030   -2.2374342 
O     2.1928142   -3.5367657   -2.5938813 
O    -0.1466798   -4.0412432   -2.6758320 
H     0.2545993   -4.8026700   -3.2077998 
N     0.4155471   -2.3843611    0.0409476 
H    -0.3928686   -1.6061504   -1.7692105 
H    -0.0270564   -1.5894217    0.5588530 
H    -0.2664686   -3.1774718    0.1110907 
