24
Energy =
C     1.0764897    2.2838909    0.5499637 
C     0.2546781    2.8768887   -0.3460079 
C    -0.0307203    2.2590848   -1.5148388 
C     1.6092079    1.0638160    0.2841617 
C     1.3200032    0.4309503   -0.8875310 
C     0.4979439    1.0388838   -1.7882034 
O    -0.2899363    4.1269905   -0.0695900 
H    -1.1810229    4.0319033    0.4050933 
H     0.2625671    0.5542690   -2.7325361 
H     2.2683895    0.6022896    1.0144930 
H     1.3060281    2.7966280    1.4778754 
H    -0.6811715    2.7529585   -2.2287285 
C     1.9041146   -0.9323816   -1.1930477 
C     0.8508315   -2.0667016   -1.0672060 
H     2.7711455   -1.1570792   -0.5323776 
H     2.3192920   -0.9055902   -2.2271016 
C     1.3658375   -3.3712564   -1.6819885 
O     2.1288162   -3.3394138   -2.8413348 
O     0.9697163   -4.6059864   -1.1848095 
H     0.0409310   -4.8092277   -1.5241706 
N     0.3906239   -2.2113627    0.3387199 
H    -0.0306175   -1.8034066   -1.6933327 
H     0.5456232   -3.1832923    0.7033788 
H     0.9119982   -1.5883289    0.9969962 
