24
Energy =
C    -0.7420793    1.8195646    0.4641846 
C     0.0142371    2.8717368    0.0761342 
C     1.2523006    2.6663230   -0.4291378 
C    -0.2646466    0.5549390    0.3418902 
C     0.9808269    0.3394422   -0.1671718 
C     1.7369340    1.4043694   -0.5552813 
O    -0.4782389    4.1661476    0.2042485 
H    -0.9734524    4.4480008   -0.6348901 
H     2.7313488    1.2531183   -0.9679413 
H    -0.8849203   -0.2825217    0.6509925 
H    -1.7296820    2.0002825    0.8752147 
H     1.8504565    3.5210212   -0.7273730 
C     1.5104092   -1.0723111   -0.3188813 
C     1.1577741   -1.7883384   -1.6660377 
H     1.1649960   -1.6730641    0.5529484 
H     2.6179464   -1.0581034   -0.2048306 
C     0.5315800   -3.1540399   -1.4280313 
O     1.3218754   -4.2936564   -1.4869042 
O    -0.7979437   -3.2747784   -1.0383645 
H    -0.8803733   -3.0419929   -0.0617660 
N     0.3224804   -0.9690430   -2.5653105 
H     2.1092514   -2.0166009   -2.2014846 
H    -0.6107252   -0.7802876   -2.1275730 
H     0.7903840   -0.0595825   -2.7845797 
