24
Energy =
C    -0.8481480    2.0209858   -0.4598542 
C    -0.0460840    3.1058244   -0.4010610 
C     1.2965669    2.9595018   -0.4299422 
C    -0.3147832    0.7645069   -0.5687343 
C     1.0633135    0.6159773   -0.5593661 
C     1.8513957    1.7245108   -0.5048224 
O    -0.6025098    4.3778917   -0.3001133 
H    -0.7305116    4.6387719    0.6711536 
H     2.9339514    1.6294264   -0.5323341 
H    -1.0909297   -0.2426438   -0.4282542 
H    -1.9225867    2.1538149   -0.4227125 
H     1.9238188    3.8437015   -0.3945472 
C     1.7265311   -0.7510029   -0.7239570 
C     0.7888025   -1.9793567   -0.9830873 
H     2.3560912   -0.9599667    0.1681812 
H     2.4121427   -0.6461086   -1.5937559 
C    -0.4180532   -1.5948280   -1.8515550 
O    -1.0270899   -0.3626980   -1.5727432 
O    -1.0328240   -2.4374205   -2.7714889 
H    -0.9974895   -3.4038855   -2.4899384 
N     1.5923633   -3.1220823   -1.4892639 
H     0.3416313   -2.2772914   -0.0081352 
H     1.1157830   -3.6379087   -2.2618270 
H     2.4949289   -2.8123544   -1.9185724 
