24
Energy =
C    -0.0623373    1.8325451    0.7372380 
C     0.1676973    2.8084155   -0.1705188 
C     0.9355706    2.5439027   -1.2610120 
C     0.4683108    0.5950011    0.5671098 
C     1.2451486    0.3275146   -0.5182912 
C     1.4709115    1.3090991   -1.4353258 
O    -0.3965371    4.0707951    0.0408932 
H    -0.1919715    4.7415371   -0.6919597 
H     2.0742703    1.1109103   -2.3193123 
H     0.2651677   -0.1768366    1.3050237 
H    -0.6803815    2.0550232    1.6003128 
H     1.1198578    3.3175333   -1.9986536 
C     1.8177988   -1.0593093   -0.7195120 
C     0.8278344   -1.9908818   -1.4489364 
H     2.0841234   -1.4945094    0.2685238 
H     2.7729549   -1.0154447   -1.2928727 
C     0.5811211   -1.5397518   -2.8834402 
O     1.6240983   -1.0805029   -3.6794812 
O    -0.6941013   -1.6196194   -3.4258715 
H    -0.8800846   -2.5772800   -3.6841004 
N     1.3583007   -3.3647370   -1.3973894 
H    -0.1645408   -1.9470411   -0.9399123 
H     1.3382362   -3.7090432   -0.4082183 
H     0.7293064   -4.0064400   -1.9367920 
