24
Energy =
C     1.0132564    2.7313287   -1.2250050 
C     0.5231454    2.9150166    0.0228533 
C     0.3956874    1.8617518    0.8622754 
C     1.3875997    1.4926440   -1.6356391 
C     1.2751795    0.4296059   -0.7907412 
C     0.7703709    0.6207519    0.4600877 
O     0.1394319    4.1859289    0.4385293 
H     0.9191539    4.6741446    0.8649246 
H     0.6474428   -0.2247145    1.1348374 
H     1.7715706    1.3586725   -2.6433302 
H     1.0952814    3.5824403   -1.8925678 
H    -0.0175998    2.0194361    1.8526839 
C     1.6736434   -0.9615818   -1.2402355 
C     0.4809220   -1.8823112   -1.6565358 
H     2.2630366   -1.4215981   -0.4141698 
H     2.3898412   -0.8954800   -2.0883603 
C     0.5263871   -3.2285051   -0.9413996 
O     0.0856661   -4.3722067   -1.5961896 
O     0.9718010   -3.3339280    0.3723866 
H     0.8744537   -4.2970843    0.6685543 
N    -0.8225583   -1.2173818   -1.4601659 
H     0.5968625   -2.1242859   -2.7387712 
H    -0.9250327   -0.4535841   -2.1687232 
H    -1.5937131   -1.8986416   -1.6638195 
