24
Energy =
C    -0.7922632    1.8283189   -0.1218818 
C    -0.0070080    2.5230613    0.7408896 
C     1.2966968    2.1952482    0.8661699 
C    -0.2714989    0.8096289   -0.8535995 
C     1.0431872    0.4619371   -0.7208680 
C     1.8231391    1.1774810    0.1398830 
O    -0.5123602    3.5781621    1.5069709 
H    -1.5003224    3.7582863    1.3637701 
H     2.8785127    0.9428014    0.2553537 
H    -0.9316772    0.2825590   -1.5285506 
H    -1.8403010    2.0875719   -0.2305290 
H     1.9146221    2.7616649    1.5547477 
C     1.7017766   -0.6503663   -1.5351866 
C     0.8412024   -1.8458417   -2.0371255 
H     2.5435008   -1.0815134   -0.9462649 
H     2.1677286   -0.1661718   -2.4213160 
C     0.2785610   -2.8089523   -0.9757059 
O     0.0012890   -4.1107685   -1.3735473 
O     0.0338632   -2.4756952    0.3568927 
H     0.2183605   -1.5152511    0.5684209 
N    -0.1794327   -1.3818743   -2.9948739 
H     1.5504976   -2.5061613   -2.5943922 
H     0.2923757   -0.9684826   -3.8347948 
H    -0.7212119   -2.2086661   -3.3514403 
