24
Energy =
C     0.7267346    2.7104107   -0.6819710 
C     0.7663000    2.6503239    0.6687398 
C     1.0859089    1.4896167    1.2854700 
C     1.0194288    1.6107664   -1.4225753 
C     1.3511040    0.4411653   -0.8084004 
C     1.3751091    0.3840488    0.5520541 
O     0.4662528    3.7788192    1.4249245 
H     1.3077632    4.3065424    1.6289018 
H     1.6251570   -0.5440803    1.0603141 
H     0.9709800    1.6706479   -2.5089675 
H     0.4506840    3.6429787   -1.1629772 
H     1.0997696    1.4553226    2.3694860 
C     1.6441927   -0.7955811   -1.6278992 
C     0.3779615   -1.6336406   -1.8825357 
H     2.4040342   -1.4176129   -1.1049598 
H     2.1061508   -0.5215098   -2.6050629 
C    -0.6096422   -0.8787774   -2.7813306 
O    -0.4626259   -0.9177787   -4.1618489 
O    -1.6350506   -0.0979511   -2.2463325 
H    -1.5787660   -0.0322082   -1.2415886 
N     0.7970768   -2.9175132   -2.4737478 
H    -0.1389680   -1.8305922   -0.9152479 
H     1.2034090   -3.5309744   -1.7287769 
H    -0.0351485   -3.4261836   -2.8606351 
