24
Energy =
C    -0.1519042    2.4640017   -0.4482141 
C     0.6346227    2.9524200   -1.4439054 
C     1.6109409    2.1760934   -1.9672391 
C     0.0452189    1.2060359    0.0205771 
C     1.0361228    0.4276832   -0.4972022 
C     1.8131273    0.9170908   -1.5018771 
O     0.4603728    4.2449914   -1.9482530 
H    -0.2995529    4.7594763   -1.5161946 
H     2.5909274    0.3015088   -1.9457532 
H    -0.6012147    0.8181882    0.8050044 
H    -0.9436116    3.0752269   -0.0289831 
H     2.2235729    2.5749375   -2.7685283 
C     1.2392455   -0.9861092    0.0107333 
C     0.4170987   -2.0746461   -0.7532995 
H     1.0194003   -1.0035323    1.1024974 
H     2.3209781   -1.2389680   -0.0496649 
C    -0.3835807   -2.9728846    0.1941284 
O    -0.9789504   -2.4310546    1.3282178 
O    -0.5695696   -4.3291364   -0.0734568 
H    -0.1953107   -4.5979611   -0.9710166 
N    -0.4403341   -1.4780290   -1.7950722 
H     1.1554118   -2.7394073   -1.2559817 
H    -0.8416557   -2.2366385   -2.3965916 
H    -1.2572401   -1.0005234   -1.3435001 
