24
Energy =
C     0.2063436    2.4374075   -0.1628848 
C     0.8281254    2.9248409   -1.2608842 
C     1.6790867    2.1407474   -1.9620286 
C     0.4291089    1.1594995    0.2351722 
C     1.2875712    0.3645118   -0.4636912 
C     1.9074628    0.8612101   -1.5700313 
O     0.5964293    4.2351856   -1.6662068 
H    -0.1890479    4.2787913   -2.3063066 
H     2.5810591    0.2353493   -2.1497656 
H    -0.0843023    0.7749818    1.1132425 
H    -0.4687297    3.0786066    0.3932035 
H     2.1727799    2.5465783   -2.8385147 
C     1.5217219   -1.0702761   -0.0361479 
C     0.6275877   -2.1229551   -0.7639721 
H     1.3985170   -1.1423918    1.0696464 
H     2.5916792   -1.3228953   -0.2076486 
C    -0.1072545   -3.0190863    0.2244515 
O    -0.0262358   -4.3986364    0.1014484 
O    -0.8842742   -2.4738134    1.2393724 
H    -1.7723138   -2.1890445    0.8547195 
N    -0.2904583   -1.4924061   -1.7341435 
H     1.3066903   -2.8074145   -1.3250079 
H    -0.7774838   -2.2386608   -2.2871398 
H    -1.0331947   -0.9577900   -1.2250362 
