24
Energy =
C    -0.9643786    1.8968841   -0.8773232 
C    -0.1577689    2.9691956   -1.0320448 
C     1.1806904    2.8407445   -0.8842044 
C    -0.4303426    0.6617781   -0.6156804 
C     0.9309191    0.5422073   -0.4323580 
C     1.7265771    1.6368284   -0.5765666 
O    -0.7070929    4.2138341   -1.3234488 
H    -0.7622639    4.3523224   -2.3270016 
H     2.8018590    1.5605924   -0.4398481 
H    -1.1505772   -0.3651860   -0.3516052 
H    -2.0361935    2.0178895   -0.9749427 
H     1.8094520    3.7174992   -0.9970738 
C     1.5128165   -0.8095826   -0.0338170 
C     0.9171459   -2.0657217   -0.7849646 
H     1.3321658   -0.9335265    1.0558948 
H     2.6171170   -0.7674789   -0.1291092 
C    -0.2403504   -1.7397782   -1.7356433 
O    -1.0637510   -0.6248944   -1.4785582 
O    -0.5094489   -2.5141970   -2.8510722 
H    -1.2980786   -2.1137423   -3.3422288 
N     1.9824493   -2.8776064   -1.4264667 
H     0.4299208   -2.7166302   -0.0245671 
H     1.8484001   -2.9201800   -2.4666341 
H     2.9478592   -2.5085145   -1.2814279 
