24
Energy =
C     1.3135863    2.5500757   -1.0378946 
C     0.0712370    2.8428441   -0.5897894 
C    -0.6925080    1.8757448   -0.0317311 
C     1.7953616    1.2855441   -0.9343275 
C     1.0332892    0.3064824   -0.3713084 
C    -0.2180667    0.6084033    0.0748779 
O    -0.4199436    4.1400623   -0.6979584 
H    -0.9266476    4.2579443   -1.5689024 
H    -0.8457738   -0.1611172    0.5168358 
H     2.7896255    1.0620464   -1.3159512 
H     1.9158203    3.3343699   -1.4839530 
H    -1.6846213    2.1268748    0.3271961 
C     1.5532827   -1.1124294   -0.2827774 
C     1.1142166   -1.9613198   -1.5006972 
H     1.1788659   -1.5796935    0.6549763 
H     2.6655289   -1.1116067   -0.2135720 
C     1.6717329   -1.3981821   -2.8055158 
O     0.8139123   -1.0771761   -3.8483320 
O     3.0363634   -1.1784142   -2.9594787 
H     3.4886610   -2.0540569   -3.1741131 
N     1.4555788   -3.3901266   -1.2915652 
H     0.0063762   -1.8880984   -1.6039557 
H     2.1384903   -3.7399559   -2.0045438 
H     1.8838881   -3.5758399   -0.3537886 
