24
Energy =
C    -1.1711578    1.5963937   -0.0230964 
C    -1.0480264    2.3597548   -1.1419154 
C     0.0515671    2.2344846   -1.9189141 
C    -0.1940293    0.7165633    0.3138202 
C     0.9189447    0.5987538   -0.4611230 
C     1.0327993    1.3584824   -1.5855903 
O    -2.0346872    3.2776292   -1.5155750 
H    -2.8337030    3.3022280   -0.8914578 
H     1.9045619    1.2599950   -2.2305666 
H    -0.3102148    0.1077517    1.2068911 
H    -2.0525510    1.6859605    0.6027900 
H     0.1320937    2.8410508   -2.8144829 
C     1.9986036   -0.3987278   -0.1008382 
C     1.7379913   -1.7816596   -0.7434187 
H     2.0540233   -0.5037626    1.0054054 
H     2.9937486   -0.0157155   -0.4242778 
C     1.7547143   -1.7157697   -2.2642168 
O     0.6288717   -2.0810765   -2.9913397 
O     2.8744771   -1.2425126   -2.9406338 
H     3.5316468   -2.0030542   -3.0415807 
N     2.7203882   -2.7578165   -0.2393466 
H     0.7138663   -2.1272257   -0.4688191 
H     3.6934425   -2.4013992   -0.4001842 
H     2.6004515   -2.8768553    0.7944046 
