24
Energy =
C    -1.0590447    1.5180284    0.2785345 
C    -0.5795809    2.5771586   -0.4130502 
C     0.6112060    2.4877841   -1.0489645 
C    -0.3437642    0.3666633    0.3446120 
C     0.8611246    0.2719548   -0.2849345 
C     1.3326282    1.3393356   -0.9880270 
O    -1.3166806    3.7550433   -0.4801933 
H    -1.0700616    4.3763746    0.2824535 
H     2.2865013    1.2794012   -1.5072430 
H    -0.7458574   -0.4798211    0.8959077 
H    -2.0219055    1.5980433    0.7714521 
H     0.9764618    3.3409390   -1.6108293 
C     1.6564634   -1.0143303   -0.2334673 
C     1.4512988   -1.8745751   -1.5006856 
H     1.3760754   -1.6131898    0.6619326 
H     2.7337138   -0.7592261   -0.1070088 
C     2.5001241   -2.9813107   -1.5811099 
O     3.8335647   -2.6963141   -1.3186623 
O     2.1610347   -4.2631129   -1.9921553 
H     1.8341922   -4.7763940   -1.1869108 
N     0.0750552   -2.4090300   -1.4949748 
H     1.6181530   -1.2507801   -2.4099106 
H    -0.5948399   -1.6268663   -1.6842461 
H    -0.0431990   -3.0671903   -2.3046500 
