24
Energy =
C    -0.7845581    2.0742723   -0.1184018 
C     0.0347856    2.9825337   -0.7121146 
C     1.2852403    2.6176959   -1.0767968 
C    -0.3488954    0.8094415    0.1085363 
C     0.9116522    0.4421283   -0.2542797 
C     1.7264016    1.3535618   -0.8532020 
O    -0.3822062    4.2935880   -0.9608503 
H    -1.3312296    4.4904057   -0.6613117 
H     2.7322447    1.0772184   -1.1592342 
H    -1.0169482    0.0877209    0.5751526 
H    -1.7905226    2.3560660    0.1735638 
H     1.9267857    3.3521288   -1.5522564 
C     1.3902466   -0.9752615   -0.0149393 
C     1.0616897   -2.0024835   -1.1500538 
H     0.9692749   -1.3211586    0.9583604 
H     2.4900449   -0.9684612    0.1533189 
C     0.3848409   -3.2397260   -0.5879544 
O     0.9890609   -4.4854694   -0.7075067 
O    -0.8185615   -3.1322239    0.1003665 
H    -1.1149280   -4.0611866    0.3717914 
N     0.2681929   -1.4268894   -2.2533876 
H     2.0212459   -2.3770835   -1.5760965 
H    -0.6675880   -1.1141983   -1.8995412 
H     0.7628746   -0.6110142   -2.6821843 
