24
Energy =
C     1.4829388    2.4945569   -1.7762573 
C     0.6184478    3.0512892   -0.8969651 
C     0.1079973    2.3091186    0.1124575 
C     1.8331767    1.1891463   -1.6542833 
C     1.3189399    0.4332251   -0.6440562 
C     0.4541809    1.0035667    0.2410679 
O     0.2612439    4.3901972   -1.0266825 
H    -0.5462535    4.4879283   -1.6333088 
H     0.0272601    0.4177845    1.0517474 
H     2.5229189    0.7524170   -2.3709815 
H     1.8910196    3.1031915   -2.5757833 
H    -0.5811026    2.7676582    0.8133599 
C     1.6867341   -1.0310929   -0.5160831 
C     0.6858868   -1.9760607   -1.2298786 
H     1.7420871   -1.3017119    0.5627428 
H     2.7116223   -1.2041584   -0.9137012 
C    -0.7383006   -1.8531322   -0.6745502 
O    -1.6672222   -1.0263346   -1.2984568 
O    -1.1086299   -2.4951357    0.5091177 
H    -0.3517496   -3.0356512    0.8990173 
N     0.7378410   -1.7869912   -2.6904772 
H     0.9979738   -3.0236271   -1.0207981 
H     0.3543325   -0.8458772   -2.9472179 
H     1.7266881   -1.8359570   -3.0295511 
