24
Energy =
C    -0.9318095    1.5424192    0.2317423 
C    -0.2629848    2.6407859   -0.1887530 
C     0.9884455    2.5211260   -0.6886509 
C    -0.3530955    0.3175000    0.1477469 
C     0.9076029    0.1898174   -0.3515061 
C     1.5742247    1.2998148   -0.7754832 
O    -0.8603376    3.8943818   -0.1016809 
H    -1.3811213    4.1037191   -0.9463757 
H     2.5775756    1.2179981   -1.1896108 
H    -0.9046002   -0.5567068    0.4844309 
H    -1.9314805    1.6539132    0.6376143 
H     1.5155983    3.4106448   -1.0169988 
C     1.5450126   -1.1769354   -0.4705598 
C     1.1154868   -1.9012632   -1.7598191 
H     1.2707285   -1.7926135    0.4139389 
H     2.6573019   -1.0984341   -0.4501574 
C     1.5446149   -1.1268384   -3.0010357 
O     2.8826511   -0.8260095   -3.2247683 
O     0.5886795   -0.6649886   -3.8962643 
H     0.1841369    0.1843604   -3.5299211 
N     1.6890096   -3.2574790   -1.7372988 
H     0.0022839   -1.9669606   -1.7970290 
H     1.1812566   -3.8373065   -1.0283702 
H     1.5261304   -3.7231581   -2.6634462 
