24
Energy =
C     0.9459435    2.7304464   -1.0639631 
C     0.0768556    2.8686213   -0.0270188 
C    -0.2384500    1.7926784    0.7291602 
C     1.4956502    1.5198021   -1.3369743 
C     1.1856287    0.4375744   -0.5703342 
C     0.3099529    0.5804173    0.4623818 
O    -0.5065347    4.1014399    0.2809386 
H    -0.2243638    4.8576365   -0.3331342 
H     0.0322615   -0.2796632    1.0678759 
H     2.1826599    1.4238406   -2.1735477 
H     1.2009779    3.5871275   -1.6785852 
H    -0.9404558    1.9141608    1.5471594 
C     1.7827765   -0.9225776   -0.8751212 
C     0.8277085   -1.9098714   -1.6211251 
H     2.1319440   -1.3592166    0.0900163 
H     2.7117745   -0.8027854   -1.4747355 
C     0.7209921   -3.2404879   -0.8730408 
O    -0.4899332   -3.9128770   -0.7684803 
O     1.8649551   -3.8470389   -0.3665966 
H     2.3742357   -4.2773308   -1.1248221 
N    -0.4931325   -1.2964668   -1.8673378 
H     1.2877869   -2.1647859   -2.6029699 
H    -0.3953896   -0.5621508   -2.6069415 
H    -1.1504012   -2.0123855   -2.2623999 
