24
Energy =
C     1.5816770    2.5739634   -0.5897993 
C     0.3225342    2.8729905   -0.1720279 
C    -0.5039380    1.8788785    0.2239930 
C     2.0073173    1.2850007   -0.6058876 
C     1.1795010    0.2842093   -0.1957883 
C    -0.0830325    0.5887478    0.2111898 
O    -0.1476342    4.1895503   -0.1424596 
H     0.5276274    4.8767817   -0.4594814 
H    -0.7644066   -0.2013656    0.5160008 
H     3.0137905    1.0612137   -0.9513838 
H     2.2494604    3.3644611   -0.9151964 
H    -1.5087479    2.1304224    0.5456145 
C     1.6426988   -1.1564102   -0.2331537 
C     1.1900649   -1.8565842   -1.5318355 
H     1.2482983   -1.6973474    0.6549063 
H     2.7533672   -1.1937440   -0.1475290 
C     1.9936019   -3.1267196   -1.8092304 
O     2.6971683   -3.2323533   -3.0011629 
O     2.0493173   -4.1837829   -0.9008801 
H     1.5100158   -3.9998747   -0.0701336 
N    -0.2645492   -2.1014181   -1.4751725 
H     1.4133075   -1.1784728   -2.3917792 
H    -0.5963875   -2.4074296   -2.4223670 
H    -0.4797494   -2.8903231   -0.8202957 
