24
Energy =
C     0.0361863    2.3902542   -1.1862054 
C    -0.5000080    2.5263376    0.0559154 
C    -0.2214506    1.6078876    1.0084388 
C     0.8455347    1.3379514   -1.4683815 
C     1.1261961    0.4117091   -0.5104188 
C     0.5874516    0.5535767    0.7324043 
O    -1.3388659    3.5972324    0.3797492 
H    -1.4965724    4.2452240   -0.3845596 
H     0.7963205   -0.1753152    1.5118712 
H     1.2690944    1.2435222   -2.4656784 
H    -0.1807519    3.1229129   -1.9561741 
H    -0.6558666    1.7292870    1.9949774 
C     2.0253574   -0.7644061   -0.8306295 
C     1.3259232   -1.8356127   -1.7115368 
H     2.3980776   -1.2510726    0.0992178 
H     2.9294404   -0.3664293   -1.3457547 
C     2.3493455   -2.8341537   -2.2797023 
O     3.6889425   -2.4699464   -2.3688840 
O     1.9773123   -4.0643125   -2.8223876 
H     1.0009977   -4.2627427   -2.6833823 
N     0.2737422   -2.5116797   -0.9236002 
H     0.8743805   -1.3383326   -2.6005478 
H    -0.3145243   -1.8100517   -0.4159773 
H    -0.4029486   -2.9695064   -1.5768141 
