24
Energy =
C     0.7861917    2.1149850    0.8785053 
C     0.2146587    2.8614799   -0.0940498 
C     0.2318112    2.4307811   -1.3760239 
C     1.3694877    0.9276301    0.5734923 
C     1.3840487    0.4827358   -0.7145104 
C     0.8132967    1.2446367   -1.6892754 
O    -0.3828312    4.0773664    0.2225775 
H    -1.3645728    3.9476284    0.4413487 
H     0.8218526    0.9103900   -2.7236387 
H     1.8249097    0.3408477    1.3667890 
H     0.7754426    2.4789527    1.9003114 
H    -0.2197226    3.0465587   -2.1464832 
C     2.0269826   -0.8427098   -1.0654482 
C     0.9796195   -1.9448512   -1.3768550 
H     2.7014297   -1.1920769   -0.2508428 
H     2.6873989   -0.6898424   -1.9497455 
C     1.6278826   -3.1766103   -2.0194360 
O     2.9988937   -3.3822722   -1.9163429 
O     0.8563495   -4.1279433   -2.6843397 
H    -0.1282725   -3.9075486   -2.6371170 
N     0.1784626   -2.2850766   -0.1750436 
H     0.2855751   -1.5503132   -2.1522499 
H     0.2502961   -3.3049623    0.0623166 
H     0.5040358   -1.7766779    0.6794554 
