24
Energy =
C     0.1719687    1.7256893    0.9482029 
C     1.1693674    2.5137483    0.4866162 
C     2.0796384    2.0037700   -0.3850966 
C     0.0759944    0.4318982    0.5495172 
C     0.9914311   -0.0874717   -0.3139174 
C     1.9911062    0.7095947   -0.7849128 
O     1.2349729    3.8410949    0.9226648 
H     1.9925713    4.3742003    0.5096744 
H     2.7159884    0.3222505   -1.4986638 
H    -0.7400641   -0.1802898    0.9248707 
H    -0.5520209    2.1469318    1.6372975 
H     2.8758614    2.6319820   -0.7699470 
C     0.8721220   -1.5244951   -0.7764010 
C     0.0539659   -1.6465363   -2.0787065 
H     0.3905883   -2.1322434    0.0215577 
H     1.8808389   -1.9729541   -0.9214204 
C     0.7754985   -0.9771060   -3.2475988 
O     0.3960091    0.3001032   -3.6382614 
O     1.8762437   -1.5671048   -3.8668720 
H     1.9912205   -2.5214155   -3.5568151 
N    -0.2006934   -3.0744490   -2.3364493 
H    -0.9170593   -1.1076952   -1.9625044 
H    -0.8516999   -3.4489216   -1.6046688 
H    -0.7202464   -3.1667567   -3.2423861 
