24
 energy: -4.363801090134 gnorm: 0.000838777535 xtb: 6.4.0 (d4b70c2)
C         1.78110681083535    2.49016031849783   -0.30166052206356
C         0.47671939764303    2.91635392418747   -0.05307007283956
C        -0.52544747693708    1.95135080213310    0.05102274753717
C         2.07207644970173    1.15396010960705   -0.43683440217391
C         1.07477435981821    0.19675584255958   -0.32512931315088
C        -0.22535500110624    0.61750287114162   -0.08669660778463
O         0.21269437750163    4.26569688505640    0.07898658510547
H        -0.74470089061274    4.40781098735488    0.23971565324914
H        -1.00712161554678   -0.12153217519321   -0.03466730491147
H         3.08326030495158    0.84070721100937   -0.63114322349841
H         2.55231343938256    3.23483441023815   -0.38580212347788
H        -1.53831178217008    2.26358389523709    0.23201343705544
C         1.37810375479821   -1.25947328340323   -0.49287531101032
C         0.94670600136564   -1.81071085910198   -1.85685757024282
H         0.86780726140648   -1.81881154551015    0.29836180006207
H         2.44854406208571   -1.43053706857555   -0.34392237475751
C        -0.55025908936811   -1.67174236685156   -2.02619814061964
O        -1.28955047313536   -2.21165901908593   -1.23400371260848
O        -0.98314948667474   -0.90678619562856   -3.05018121759184
H        -1.95959406168840   -0.92530591596960   -3.03130562561797
N         1.63128248311293   -1.16081541485082   -2.96661633905159
H         1.18501776850296   -2.88470978254277   -1.91133432738650
H         1.12767419079673   -0.31279422599813   -3.20823392388366
H         2.58450351760955   -0.91746286999025   -2.72505832164827
