24
Energy =
C    -1.0389878    1.5951335   -1.8685186 
C    -1.0894834    2.3269244   -0.7316243 
C    -0.1444519    2.1618865    0.2220702 
C    -0.0444905    0.6890129   -2.0530329 
C     0.9123908    0.5203716   -1.0982956 
C     0.8527686    1.2583815    0.0443491 
O    -2.1112242    3.2529456   -0.5458316 
H    -2.9096923    2.8188730   -0.0959569 
H     1.5991590    1.1241706    0.8230770 
H    -0.0183980    0.1030279   -2.9681945 
H    -1.8000452    1.7439293   -2.6270671 
H    -0.1944467    2.7576648    1.1268555 
C     2.0090508   -0.5029090   -1.2890048 
C     1.6102712   -1.8752163   -0.7044431 
H     2.9506269   -0.1487195   -0.8126061 
H     2.2467602   -0.6022729   -2.3732286 
C     2.5153568   -2.9928966   -1.2043839 
O     1.9997432   -4.2697445   -1.3739129 
O     3.8661876   -2.7708688   -1.4388328 
H     4.3614774   -2.8109431   -0.5606125 
N     1.5906801   -1.7878288    0.7679264 
H     0.5910035   -2.1411768   -1.0739879 
H     1.2420342   -2.6941246    1.1656211 
H     2.5646979   -1.6521121    1.1291115 
