24
Energy =
C     0.8006346    2.5960141   -0.9541087 
C    -0.0030623    2.6953432    0.1297211 
C    -0.1971909    1.6215877    0.9292926 
C     1.4085716    1.4180000   -1.2468785 
C     1.2188425    0.3326731   -0.4458471 
C     0.4076250    0.4402843    0.6435848 
O    -0.6251755    3.9039157    0.4259408 
H    -1.5322250    3.9608618   -0.0237658 
H     0.2368722   -0.4179939    1.2896102 
H     2.0497375    1.3509396   -2.1225022 
H     0.9546254    3.4679201   -1.5809108 
H    -0.8376930    1.7184443    1.7994442 
C     1.8843772   -0.9848015   -0.7792896 
C     1.0966092   -1.7857406   -1.8378399 
H     1.9980654   -1.6094202    0.1366584 
H     2.9180792   -0.7870738   -1.1433953 
C     1.9179847   -2.9731283   -2.3522658 
O     2.9092401   -3.5377750   -1.5562340 
O     1.6762595   -3.5256480   -3.6108702 
H     0.9170172   -3.0636593   -4.0885856 
N    -0.1826861   -2.2267887   -1.2538514 
H     0.9035313   -1.1252198   -2.7145066 
H    -0.8300972   -1.4061558   -1.1897412 
H    -0.6522642   -2.9067291   -1.8990619 
