24
 energy: -4.356588909797 gnorm: 0.000741217809 xtb: 6.4.0 (d4b70c2)
C         1.37406416430029    2.55234807433542   -0.48996286534536
C         0.14784055126392    2.66694041271754    0.16352899076673
C        -0.51328025241413    1.49635671899270    0.53538377880127
C         1.91589876160971    1.31852939403171   -0.75917425707472
C         1.26092320667176    0.15563067145542   -0.37990107742505
C         0.03956304468789    0.26692012268627    0.26841693698529
O        -0.37466998997031    3.91931294862406    0.42028051975805
H        -1.24262211723889    3.83716712969537    0.86970229508365
H        -0.49650472492942   -0.63024136927598    0.52952617734607
H         2.85844909257549    1.24679570940274   -1.27380443470371
H         1.88173435480536    3.45456446411025   -0.78099242726912
H        -1.46775207648303    1.56588789883096    1.02592408145527
C         1.84987101455316   -1.18760991098054   -0.68964587307343
C         1.07118812867652   -1.97379461698875   -1.75408379140680
H         1.90762388255571   -1.77362126220191    0.23314235073975
H         2.88223532518907   -1.05218455274487   -1.02713122657100
C        -0.27974317039971   -2.40903188288952   -1.22426880567757
O        -1.22491480652299   -1.69512567875505   -1.47998393510518
O        -0.32637309008465   -3.54039068139103   -0.47690843973081
H         0.55901041721775   -3.96040938000326   -0.40456756019755
N         0.85938485187303   -1.18195574355835   -2.95321082093973
H         1.64424681878960   -2.87181096788980   -2.03477293877102
H         0.37889014138483   -1.74468849111861   -3.64223583826244
H         0.19974080669120   -0.45596127495212   -2.69861872364321
