24
Energy =
C     0.7698230    2.7900429   -0.7868126 
C    -0.3508762    2.8434332   -0.0179358 
C    -0.7730263    1.7319540    0.6266713 
C     1.4621913    1.6283732   -0.9043986 
C     1.0427533    0.5122387   -0.2481423 
C    -0.0849796    0.5676677    0.5129097 
O    -1.0881761    4.0232131    0.1231788 
H    -0.7072868    4.8116620   -0.3886800 
H    -0.4464259   -0.3209903    1.0267919 
H     2.3501809    1.5964045   -1.5312494 
H     1.1124047    3.6750516   -1.3122322 
H    -1.6718124    1.7871099    1.2314263 
C     1.7975821   -0.7904892   -0.3938579 
C     1.3766272   -1.7467647   -1.5684708 
H     1.7430115   -1.3284013    0.5826474 
H     2.8820454   -0.5617728   -0.4981597 
C     1.1440313   -3.1596370   -1.0482165 
O     0.0826287   -3.4207296   -0.1921495 
O     2.0034084   -4.1903673   -1.3992919 
H     1.7467493   -4.5351879   -2.3132666 
N     0.2559603   -1.2689108   -2.4236636 
H     2.2639598   -1.8449525   -2.2353214 
H    -0.5219903   -1.9719051   -2.4636263 
H    -0.1998644   -0.3876867   -2.1082296 
