24
Energy =
C    -0.1040491    0.6088582    1.5328090 
C    -0.5868620    1.7989036    1.1086821 
C    -0.2000003    2.2889601   -0.0993686 
C     0.7640730   -0.0953027    0.7631574 
C     1.1582061    0.3924010   -0.4455997 
C     0.6670311    1.5884501   -0.8735683 
O    -1.4776380    2.4961288    1.9310276 
H    -1.7985253    3.3750492    1.5401891 
H     0.9615015    1.9868195   -1.8416423 
H     1.1352581   -1.0540037    1.1198311 
H    -0.4242338    0.2254712    2.4957272 
H    -0.5849368    3.2405400   -0.4499597 
C     2.1149067   -0.3978289   -1.3160864 
C     1.4017208   -1.4118457   -2.2350574 
H     2.8472150   -0.9363883   -0.6720799 
H     2.7150265    0.2948240   -1.9464704 
C     0.6674434   -2.4902975   -1.4470104 
O     1.3503843   -3.2417455   -0.4985934 
O    -0.6761649   -2.7560246   -1.6771222 
H    -0.9646757   -3.5076816   -1.0635251 
N     0.5372090   -0.6927040   -3.1903128 
H     2.1892824   -1.9562311   -2.8044843 
H     0.1975644   -1.3799912   -3.9050827 
H    -0.3341018   -0.3877392   -2.6914559 
