24
Energy =
C     0.3278471    2.4754053   -1.0843573 
C    -0.3810053    2.5878653    0.0623348 
C    -0.3447859    1.5954061    0.9806852 
C     1.0696234    1.3634756   -1.3214823 
C     1.1067987    0.3566914   -0.4042988 
C     0.3950860    0.4804334    0.7515234 
O    -1.1403187    3.7286345    0.3017129 
H    -2.0839718    3.6132354   -0.0513181 
H     0.4129391   -0.3097866    1.4984733 
H     1.6370835    1.2877682   -2.2460968 
H     0.2996846    3.2851642   -1.8058026 
H    -0.9088696    1.7054727    1.9008371 
C     1.9327679   -0.8843911   -0.6716662 
C     1.2860323   -1.8231175   -1.7266735 
H     2.1068503   -1.4615095    0.2647486 
H     2.9399558   -0.5513493   -1.0120083 
C     2.2895724   -2.8863949   -2.2057642 
O     3.6542301   -2.6591530   -2.0604463 
O     1.8957405   -4.0358868   -2.8911622 
H     0.8955276   -4.1395191   -2.9178781 
N     0.0637955   -2.4329701   -1.1615859 
H     1.0298923   -1.2294239   -2.6340636 
H    -0.5278743   -1.7073954   -0.6934934 
H    -0.5413434   -2.7751675   -1.9432117 
