24
Energy =
C     0.4417430    2.2472262   -2.5352038 
C     0.2839692    3.1036847   -1.4998219 
C     0.6256175    2.7223180   -0.2474967 
C     0.9581227    1.0097235   -2.3240547 
C     1.3178301    0.6228874   -1.0676079 
C     1.1424885    1.4865454   -0.0275924 
O    -0.2334103    4.3765545   -1.7224273 
H     0.5107747    5.0386342   -1.9098428 
H     1.4013768    1.1888749    0.9842971 
H     1.0672673    0.3255401   -3.1611668 
H     0.1429464    2.5575384   -3.5304371 
H     0.4729770    3.4111755    0.5757863 
C     1.8959070   -0.7552878   -0.8332625 
C     0.8712640   -1.9258560   -0.5808583 
H     2.5917634   -0.7080193    0.0340165 
H     2.5738634   -0.9736865   -1.6846325 
C    -0.6360929   -1.6317030   -0.5776573 
O    -1.1684765   -0.3507497   -0.6686306 
O    -1.5226836   -2.6817294   -0.3655734 
H    -2.4663517   -2.3197675   -0.3892074 
N     1.1514705   -3.0801875   -1.4669036 
H     1.0369095   -2.2477897    0.4733705 
H     1.9037106   -2.9182130   -2.1731295 
H     1.4244061   -3.9153199   -0.8971115 
