24
Energy =
C     2.0381364    1.7973848   -2.2159566 
C     0.8681772    2.1562068   -2.7923798 
C    -0.3060010    1.7672192   -2.2283795 
C     2.0460894    1.0564574   -1.0787162 
C     0.8730329    0.6738575   -0.5043792 
C    -0.3043672    1.0266935   -1.0913251 
O     0.9012755    2.9210867   -3.9627784 
H    -0.0116869    3.1466100   -4.3415913 
H    -1.2497113    0.7090263   -0.6566486 
H     2.9956613    0.7649974   -0.6375536 
H     2.9693247    2.1060134   -2.6794821 
H    -1.2470794    2.0442889   -2.6888877 
C     0.8751099   -0.1723330    0.7527688 
C     0.9229491   -1.7114247    0.5014474 
H    -0.0155378    0.1001920    1.3648537 
H     1.7439950    0.1178432    1.3837991 
C    -0.2001554   -2.4322972    1.2323477 
O     0.0833961   -3.5058993    2.0655893 
O    -1.5212703   -2.0383001    1.0601535 
H    -2.1107951   -2.6512899    1.6098579 
N     0.9345085   -2.0336349   -0.9393756 
H     1.8667200   -2.0975371    0.9529012 
H     1.1161841   -3.0591980   -1.0568473 
H    -0.0217169   -1.8634435   -1.3349026 
