24
Energy =
C    -0.8383556    2.0348018   -1.2126910 
C    -0.0981113    2.4828078   -2.2613987 
C     1.1526353    2.0036535   -2.4508340 
C    -0.3232496    1.1148257   -0.3589120 
C     0.9406488    0.6398860   -0.5420586 
C     1.6735847    1.0836123   -1.5996044 
O    -0.5981226    3.4312474   -3.1589491 
H    -1.5440635    3.7358390   -2.9558245 
H     2.6744882    0.6982994   -1.7760258 
H    -0.9309523    0.7525625    0.4674858 
H    -1.8451562    2.4067686   -1.0571435 
H     1.7284956    2.3629435   -3.2969762 
C     1.5075198   -0.4057229    0.3975552 
C     1.2393405   -1.8810659   -0.0340721 
H     1.1134924   -0.2135653    1.4228838 
H     2.6052156   -0.2518348    0.4926026 
C     0.6003949   -2.6810135    1.0923404 
O    -0.5630324   -2.2274008    1.7004244 
O     1.1674628   -3.8734897    1.5173051 
H     0.9073551   -4.6089702    0.8766327 
N     0.4488384   -1.9533649   -1.2785658 
H     2.2286166   -2.3603293   -0.2207845 
H     0.4428467   -2.9400093   -1.6304615 
H    -0.5497934   -1.7073198   -1.0731441 
