24
Energy =
C     0.0063659    1.7015643    1.0007606 
C    -0.0378950    2.6937523    0.0719767 
C     0.5522733    2.5101141   -1.1309804 
C     0.6405123    0.5344211    0.7221315 
C     1.2397900    0.3509170   -0.4868447 
C     1.1872204    1.3447157   -1.4154330 
O    -0.6840005    3.9077362    0.3258049 
H    -1.0967711    3.9708947    1.2501714 
H     1.6529097    1.2150019   -2.3890422 
H     0.6601862   -0.2550881    1.4703411 
H    -0.4674387    1.8381636    1.9669071 
H     0.5078880    3.3091888   -1.8630700 
C     1.9304196   -0.9559408   -0.8091418 
C     1.0098338   -1.9224692   -1.5820934 
H     2.2758638   -1.4569862    0.1253893 
H     2.8497352   -0.7461647   -1.4012574 
C     1.8050248   -3.1027879   -2.1242598 
O     2.7343694   -3.7605813   -1.3283045 
O     1.5971733   -3.5422093   -3.4254588 
H     2.0908476   -2.9371486   -4.0648784 
N    -0.0786731   -2.3680333   -0.6926507 
H     0.5856761   -1.4018563   -2.4726905 
H    -0.7789730   -1.5958145   -0.5943710 
H    -0.5959664   -3.1622491   -1.1430883 
