24
Energy =
C     1.4631454    2.5512911   -1.0734822 
C     0.2565662    2.8706985   -0.5515046 
C    -0.4875451    1.9228420    0.0627214 
C     1.9362518    1.2827405   -0.9720279 
C     1.2001398    0.3262102   -0.3396323 
C    -0.0209641    0.6523213    0.1686305 
O    -0.2250220    4.1714958   -0.6571981 
H     0.0550096    4.7240147    0.1455757 
H    -0.6351197   -0.1060896    0.6474813 
H     2.9034961    1.0390753   -1.4049862 
H     2.0411957    3.3174883   -1.5792423 
H    -1.4623589    2.1888725    0.4571294 
C     1.7138156   -1.0943441   -0.2450178 
C     1.1660270   -1.9654912   -1.3916240 
H     1.4265168   -1.5355258    0.7348853 
H     2.8274994   -1.0887932   -0.2719981 
C     1.9622459   -3.2552105   -1.5383271 
O     2.8446008   -3.4066211   -2.5976856 
O     1.8582674   -4.2686558   -0.5930643 
H     2.3833459   -4.0116708    0.2289335 
N    -0.2705655   -2.2151447   -1.1652033 
H     1.3012482   -1.4171722   -2.3555204 
H    -0.6799891   -2.6274367   -2.0378011 
H    -0.3881108   -2.9496956   -0.4245095 
