24
Energy =
C     1.0859958    2.6145909   -1.4636805 
C     0.3760514    2.9218775   -0.3541561 
C     0.1478507    1.9769871    0.5864518 
C     1.5835976    1.3621466   -1.6299683 
C     1.3674689    0.4078639   -0.6824036 
C     0.6392560    0.7218218    0.4256626 
O    -0.1282878    4.2074834   -0.1849649 
H     0.5386674    4.7927441    0.3056120 
H     0.4427264   -0.0298025    1.1866982 
H     2.1391884    1.1232913   -2.5344599 
H     1.2418793    3.3765409   -2.2199922 
H    -0.4368619    2.2335607    1.4632805 
C     1.9030987   -0.9972116   -0.8624956 
C     0.8438600   -1.9612175   -1.4469156 
H     2.2369800   -1.3766607    0.1301153 
H     2.8153464   -0.9986403   -1.5001163 
C     0.7763569   -1.9074695   -2.9733123 
O     0.7613892   -0.6889895   -3.6416266 
O     0.6693090   -3.0770667   -3.7163553 
H     0.6070405   -2.8385805   -4.6978638 
N     1.1343185   -3.3169101   -0.9414936 
H    -0.1710113   -1.6591057   -1.0979775 
H     0.3812859   -3.9689874   -1.2721079 
H     2.0149055   -3.6676925   -1.3904627 
