24
Energy =
C     2.0879047    2.3312851   -1.0122331 
C     0.8640077    2.9091220   -1.0360363 
C    -0.2345493    2.1893285   -0.7151881 
C     2.2287381    1.0316289   -0.6474306 
C     1.1344673    0.2987996   -0.3117325 
C    -0.1218300    0.8639718   -0.3854405 
O     0.7373610    4.2494587   -1.3885190 
H     0.8129041    4.8440204   -0.5708867 
H    -1.1184546    0.1757475    0.0527628 
H     3.2195012    0.5858261   -0.6294867 
H     2.9551522    2.9226619   -1.2858112 
H    -1.2082547    2.6637713   -0.7361621 
C     1.2397816   -1.1626336    0.0846699 
C     0.4480757   -2.0833073   -0.8791527 
H     0.8410052   -1.2779588    1.1159156 
H     2.3012632   -1.4945842    0.1088050 
C    -0.9666997   -1.5716329   -1.1498874 
O    -1.2445762   -0.1982184   -1.0334053 
O    -1.9560210   -2.4190444   -1.6133081 
H    -1.7889414   -2.6199145   -2.5880916 
N     1.2281859   -2.2395964   -2.1185647 
H     0.3231735   -3.0798621   -0.3949147 
H     0.7673051   -2.9552798   -2.7283730 
H     1.2084962   -1.3349785   -2.6516766 
