24
Energy =
C     0.2258261    1.0911991    1.4705385 
C    -0.1917657    2.2409461    0.8770466 
C     0.0958513    2.4632107   -0.4253097 
C     0.9317607    0.1744445    0.7610456 
C     1.2295819    0.4004421   -0.5494777 
C     0.8002913    1.5498450   -1.1399963 
O    -0.9162756    3.2084104    1.5806793 
H    -1.1150583    2.9552375    2.5424931 
H     1.0087366    1.7398700   -2.1892288 
H     1.2457934   -0.7470432    1.2473939 
H    -0.0084421    0.8991780    2.5121036 
H    -0.2512813    3.3795643   -0.8897172 
C     2.0024450   -0.6295433   -1.3514353 
C     1.0801784   -1.6773331   -2.0115642 
H     2.7371776   -1.1422960   -0.6904526 
H     2.6018411   -0.1229900   -2.1391622 
C     0.3587902   -2.5222854   -0.9614520 
O    -1.0041274   -2.7744773   -1.0481284 
O     1.0859481   -3.1241153    0.0607559 
H     1.5815645   -3.9209939   -0.3120026 
N     0.1599800   -0.9948334   -2.9394292 
H     1.7156090   -2.3882523   -2.5864144 
H     0.6958841   -0.6712319   -3.7778212 
H    -0.5566393   -1.6750877   -3.2917392 
