24
Energy =
C     1.2498696    2.5951596   -0.9997011 
C     0.0121679    2.8163866   -0.5009637 
C    -0.6707332    1.7939444    0.0797804 
C     1.8136243    1.3628878   -0.9212536 
C     1.1385584    0.3385714   -0.3306300 
C    -0.1114305    0.5600044    0.1617116 
O    -0.5345483    4.0999303   -0.6004110 
H    -1.4669757    4.1824350   -0.2102535 
H    -0.6744089   -0.2535036    0.6126911 
H     2.8061306    1.2048455   -1.3362223 
H     1.7818193    3.4174966   -1.4659549 
H    -1.6673558    1.9592088    0.4747102 
C     1.7558421   -1.0413254   -0.2596316 
C     1.3201654   -1.9175752   -1.4481527 
H     1.4744481   -1.5439874    0.6927665 
H     2.8659187   -0.9543613   -0.2415818 
C     2.1767971   -3.1699030   -1.5327684 
O     2.9779710   -3.3965852   -2.6437639 
O     2.1845564   -4.0872071   -0.4898309 
H     2.8110627   -4.8444978   -0.7335631 
N    -0.1152767   -2.2331327   -1.3183294 
H     1.4967044   -1.3555391   -2.3962405 
H    -0.4410548   -2.6790646   -2.2089849 
H    -0.2430232   -2.9592111   -0.5705411 
