24
Energy =
C     0.9395261    2.4505501   -0.3284801 
C     0.7129634    2.2372636    0.9877273 
C     0.8265667    0.9805323    1.4945237 
C     1.2780407    1.4199058   -1.1439585 
C     1.3954461    0.1599777   -0.6418179 
C     1.1660405   -0.0535032    0.6839886 
O     0.3632522    3.3243471    1.7939532 
H     0.2102581    3.0848143    2.7678719 
H     1.2476236   -1.0551895    1.1025263 
H     1.4514217    1.6077359   -2.2011009 
H     0.8443922    3.4578689   -0.7203113 
H     0.6446003    0.7987370    2.5486194 
C     1.7554972   -0.9964435   -1.5517543 
C     0.5251393   -1.6849135   -2.1769779 
H     2.3470705   -1.7504261   -0.9839275 
H     2.4225970   -0.6425170   -2.3692732 
C    -0.4232497   -2.2508520   -1.1254233 
O    -0.0336688   -3.3496719   -0.3731510 
O    -1.6508807   -1.6548552   -0.8611988 
H    -1.5055741   -0.8338611   -0.2928131 
N    -0.1274784   -0.7697674   -3.1333519 
H     0.8972743   -2.5748145   -2.7362326 
H    -0.8331816   -1.3147941   -3.6847102 
H    -0.6848240   -0.0515417   -2.6124701 
