24
Energy =
C     2.2325825    2.1685414   -0.8265274 
C     1.3656999    2.8082926    0.0030786 
C     0.4035288    2.1015099    0.6379199 
C     2.1358846    0.8276960   -1.0116335 
C     1.1726083    0.1134635   -0.3660055 
C     0.3000834    0.7609910    0.4545610 
O     1.4401081    4.1878495    0.2207862 
H     2.1698492    4.6491459   -0.3119954 
H    -0.4863503    0.2126854    0.9659853 
H     2.8266581    0.3330828   -1.6917340 
H     3.0012558    2.7276578   -1.3491615 
H    -0.2857129    2.6254720    1.2907374 
C     1.0453991   -1.3780563   -0.5921582 
C     0.0919697   -1.6990303   -1.7658341 
H     0.6747478   -1.8618549    0.3381576 
H     2.0493302   -1.8181102   -0.7933026 
C     0.6578249   -1.2133099   -3.0908531 
O     0.1622255   -0.0576783   -3.6782600 
O     1.7244378   -1.8722516   -3.6888050 
H     1.3630091   -2.6819552   -4.1713515 
N    -0.1877773   -3.1461596   -1.7988654 
H    -0.8689725   -1.1481487   -1.6286244 
H     0.7114850   -3.6861433   -1.8246022 
H    -0.6976645   -3.4272577   -0.9283558 
