24
Energy =
C     1.0571822    2.6990987   -1.1718655 
C     0.2103139    2.9221399   -0.1404065 
C    -0.1382878    1.9061099    0.6816772 
C     1.5552685    1.4549725   -1.3889218 
C     1.2110533    0.4270016   -0.5633054 
C     0.3561029    0.6595057    0.4718160 
O    -0.2977901    4.1982548    0.0783323 
H    -1.1617430    4.3327129   -0.4355360 
H     0.0548859   -0.1554099    1.1266547 
H     2.2288968    1.2891903   -2.2253152 
H     1.3328555    3.5249617   -1.8190090 
H    -0.8170142    2.0997802    1.5055616 
C     1.7473366   -0.9704809   -0.8042810 
C     0.7511332   -1.9452763   -1.5117600 
H     2.0730880   -1.3796773    0.1808349 
H     2.6830606   -0.9183345   -1.4030906 
C     0.5905465   -3.2410765   -0.7134386 
O    -0.6439450   -3.8673835   -0.5983722 
O     1.7073918   -3.8676816   -0.1721304 
H     2.2086020   -4.3436679   -0.9080804 
N    -0.5435128   -1.2870425   -1.7815507 
H     1.1989414   -2.2566619   -2.4829636 
H    -0.4169172   -0.5925155   -2.5543424 
H    -1.2320629   -1.9912584   -2.1430374 
