24
Energy =
C     1.5250406    2.3799893   -1.3005949 
C     0.8401317    2.8631388   -0.2391367 
C     0.3180828    2.0120176    0.6734507 
C     1.7037650    1.0424622   -1.4448914 
C     1.1928231    0.1779251   -0.5238046 
C     0.4921776    0.6726748    0.5357292 
O     0.6673826    4.2358012   -0.0888478 
H     1.4292427    4.6380864    0.4454120 
H     0.0613037    0.0038110    1.2754532 
H     2.2456743    0.6664019   -2.3080726 
H     1.9199314    3.0720107   -2.0363024 
H    -0.2453104    2.4127775    1.5093190 
C     1.3802907   -1.3186724   -0.6886909 
C     0.4699460   -1.9212674   -1.7805790 
H     1.1890955   -1.8419690    0.2746509 
H     2.4435772   -1.5263314   -0.9402461 
C    -1.0018668   -1.5803362   -1.5542976 
O    -1.6135010   -0.5381221   -2.2397543 
O    -1.7417703   -2.3006034   -0.6248707 
H    -1.5252234   -1.9612360    0.2996696 
N     0.9665703   -1.5028418   -3.1057694 
H     0.5216086   -3.0327629   -1.7045756 
H     1.8038333   -2.0788147   -3.3574170 
H     0.2409694   -1.7041759   -3.8369730 
