24
Energy =
C    -0.5821501    1.7652002   -2.2023469 
C    -0.4258423    2.6738121   -1.2128133 
C     0.4851539    2.4459772   -0.2289808 
C     0.1633100    0.6316814   -2.2193703 
C     1.0810031    0.4017644   -1.2403477 
C     1.2339127    1.3141122   -0.2412144 
O    -1.2141419    3.8289940   -1.2293101 
H    -1.0353372    4.4617297   -0.4570715 
H     1.9517384    1.1404221    0.5574539 
H     0.0197832   -0.0882968   -3.0211614 
H    -1.3132870    1.9564074   -2.9802590 
H     0.6149201    3.1668268    0.5711646 
C     1.8996269   -0.8705245   -1.2481599 
C     1.1289719   -2.0620576   -0.6403551 
H     2.8506949   -0.7319155   -0.6849263 
H     2.1993603   -1.1047214   -2.2948589 
C     1.8396884   -3.3812164   -0.9132676 
O     3.1698549   -3.4174344   -1.3199206 
O     1.1544788   -4.5764545   -0.7459035 
H     1.7855567   -5.3393955   -0.9565964 
N     0.9518235   -1.8381657    0.8060836 
H     0.1345092   -2.1535991   -1.1363772 
H     0.2150729   -1.1083011    0.9471244 
H     0.5649010   -2.7115270    1.2421028 
