24
Energy =
C    -0.2502995    1.5821137    0.9812693 
C    -0.2514913    2.6104023    0.1027039 
C     0.4576501    2.5074258   -1.0532859 
C     0.4533831    0.4522470    0.7168666 
C     1.1690872    0.3465637   -0.4363204 
C     1.1628758    1.3795989   -1.3230885 
O    -0.9902773    3.7574421    0.4102628 
H    -0.9370152    4.4841569   -0.2951745 
H     1.7227138    1.3105236   -2.2528566 
H     0.4349191   -0.3679037    1.4310520 
H    -0.8223955    1.6749428    1.8981426 
H     0.4610313    3.3261015   -1.7649563 
C     1.9393831   -0.9177336   -0.7463964 
C     1.1420635   -1.8728539   -1.6587941 
H     2.2071322   -1.4569850    0.1917019 
H     2.9063262   -0.6472790   -1.2280834 
C     2.0353645   -2.9773933   -2.1999005 
O     3.0491261   -3.5289657   -1.4232361 
O     1.8302670   -3.4577639   -3.4860029 
H     2.4958681   -4.1997279   -3.6634324 
N    -0.0012164   -2.4222384   -0.9058788 
H     0.7828471   -1.3209220   -2.5595702 
H    -0.7324067   -1.6795959   -0.8062841 
H    -0.4511701   -3.1842323   -1.4695350 
