24
Energy =
C    -0.1095824    1.2278012    1.3295684 
C    -0.0635312    2.4220489    0.6954151 
C     0.6029748    2.5418618   -0.4757203 
C     0.5073868    0.1455156    0.7908756 
C     1.1857483    0.2596964   -0.3851998 
C     1.2239061    1.4649683   -1.0194634 
O    -0.6988989    3.5283785    1.2499351 
H    -1.6525033    3.5977730    0.9097121 
H     1.7329004    1.5666315   -1.9741899 
H     0.4424191   -0.8131073    1.2993378 
H    -0.6508118    1.1448670    2.2661027 
H     0.6269645    3.5035163   -0.9764296 
C     1.8366640   -0.9557605   -1.0158621 
C     0.9481437   -1.6978991   -2.0573229 
H     2.1353893   -1.6723497   -0.2187259 
H     2.7989247   -0.6477804   -1.4836542 
C    -0.4613472   -1.1257415   -2.2170052 
O    -1.4992623   -1.6280685   -1.4443710 
O    -0.7120723   -0.0577482   -3.0714132 
H    -0.7983013   -0.4078798   -4.0138791 
N     1.6805684   -1.7813045   -3.3352307 
H     0.7865022   -2.7350087   -1.6801793 
H     1.1559554   -2.3994792   -3.9995569 
H     1.7272576   -0.8300181   -3.7740270 
