24
Energy =
C     0.6419211    2.5837884   -1.0361617 
C    -0.1825530    2.6621316    0.0424789 
C    -0.3218226    1.5912880    0.8565306 
C     1.3215204    1.4374630   -1.2935833 
C     1.1864168    0.3608309   -0.4711848 
C     0.3555916    0.4426517    0.6043487 
O    -0.8990109    3.8268634    0.3351532 
H    -0.7371777    4.5866502   -0.3170055 
H     0.2236569   -0.4114388    1.2646855 
H     1.9742336    1.3875136   -2.1619409 
H     0.7580842    3.4369062   -1.6959287 
H    -0.9851858    1.6663245    1.7114143 
C     1.9302091   -0.9229091   -0.7693840 
C     1.2022416   -1.7889462   -1.8195949 
H     2.0679763   -1.5214510    0.1606246 
H     2.9552853   -0.6738408   -1.1263024 
C     2.0964643   -2.9368304   -2.3009399 
O     3.1103608   -3.4262010   -1.4838307 
O     1.9009618   -3.5279958   -3.5499600 
H     1.1209556   -3.1213867   -4.0443654 
N    -0.0562446   -2.2915709   -1.2401711 
H     0.9816632   -1.1583678   -2.7117318 
H    -0.7502828   -1.5082101   -1.1984018 
H    -0.4795300   -3.0085669   -1.8772171 
