24
Energy =
C     1.6401418    1.7189053    0.9388729 
C     2.0641678    2.5477401   -0.0523010 
C     2.1629828    2.0806964   -1.3172554 
C     1.3224676    0.4288908    0.6609206 
C     1.4349462   -0.0465859   -0.6100208 
C     1.8506019    0.7906542   -1.6006676 
O     2.4034560    3.8806070    0.2012849 
H     2.2831546    4.1602292    1.1685053 
H     1.9175738    0.4384372   -2.6288038 
H     0.9765270   -0.2178088    1.4631737 
H     1.5511686    2.0871538    1.9551856 
H     2.4878516    2.7567709   -2.1008128 
C     1.0624685   -1.4799635   -0.9254775 
C    -0.4027528   -1.5989498   -1.4057075 
H     1.2139853   -2.1112662   -0.0221331 
H     1.7486367   -1.8861353   -1.7039766 
C    -0.5971311   -0.9368267   -2.7590555 
O    -1.2019572    0.3083891   -2.8440014 
O    -0.0745944   -1.5118330   -3.9094594 
H    -0.7056136   -2.2408286   -4.2087653 
N    -0.8026168   -3.0180930   -1.4388897 
H    -1.0743646   -1.0458796   -0.7056612 
H    -0.1170786   -3.5724668   -2.0076744 
H    -0.7927810   -3.4099365   -0.4676554 
