24
Energy =
C     2.1562369    2.2764178    0.4941884 
C     1.1985048    3.1167006    0.0540163 
C     0.1816319    2.6435603   -0.6947146 
C     2.1035537    0.9588490    0.1781207 
C     1.0824092    0.4527104   -0.5817093 
C     0.1193817    1.3256718   -1.0184156 
O     1.2560871    4.4692868    0.3759864 
H     1.7753029    4.9834241   -0.3269114 
H    -0.7189130    1.0352343   -1.6169284 
H     2.8925686    0.3070150    0.5465594 
H     2.9633162    2.6669225    1.1048615 
H    -0.5876789    3.3309632   -1.0303268 
C     1.1557256   -1.0571609   -0.8759950 
C     0.0713917   -1.9202121   -1.6270090 
H     1.3300096   -1.5282059    0.1198537 
H     2.1132583   -1.2122131   -1.4210648 
C    -0.3167942   -3.1619530   -0.8194119 
O    -0.6527606   -3.0632730    0.5244256 
O    -0.3427363   -4.4110477   -1.4266756 
H     0.5993319   -4.7652562   -1.4922753 
N    -1.1141172   -1.1614387   -2.0495838 
H     0.5582423   -2.3315723   -2.5430997 
H    -0.9310929   -0.7594670   -2.9997493 
H    -1.9376590   -1.7996178   -2.1746865 
