24
Energy =
C    -1.1050836    1.6284537   -0.3710994 
C    -0.4448103    2.7071103   -0.8507943 
C     0.8793979    2.6279590   -1.1145384 
C    -0.4436638    0.4621850   -0.1613180 
C     0.8895974    0.3715447   -0.4301483 
C     1.5479723    1.4651488   -0.9068929 
O    -1.1265178    3.9008705   -1.0644634 
H    -1.5173485    3.9273687   -2.0001412 
H     2.6112098    1.4175575   -1.1305078 
H    -0.9863959   -0.3970470    0.2239977 
H    -2.1645732    1.7092239   -0.1538317 
H     1.3984199    3.5021743   -1.4930135 
C     1.6228874   -0.9350426   -0.2041354 
C     1.3118982   -1.9786025   -1.3066652 
H     1.3246638   -1.3348819    0.7897721 
H     2.7229522   -0.7687834   -0.1460307 
C     1.9604248   -1.6565967   -2.6590982 
O     2.8317149   -0.5820783   -2.7973526 
O     1.6975211   -2.4441795   -3.7768965 
H     1.1983223   -3.2783587   -3.5036135 
N     1.7038615   -3.3200276   -0.8382630 
H     0.2149697   -1.9832630   -1.5032534 
H     2.7214400   -3.3285658   -0.5799207 
H     1.1604013   -3.5779097    0.0203649 
