24
Energy =
C    -1.1582779    1.4091150   -0.0882105 
C    -0.6075719    2.6058704   -0.3950298 
C     0.7052426    2.6858525   -0.7106461 
C    -0.3985549    0.2846506   -0.1046257 
C     0.9231355    0.3541943   -0.4307797 
C     1.4720254    1.5659803   -0.7280478 
O    -1.3895160    3.7560719   -0.3761926 
H    -1.8121995    3.9184355   -1.2837172 
H     2.5239358    1.6463547   -0.9930225 
H    -0.8537548   -0.6687884    0.1507975 
H    -2.2091604    1.3611107    0.1767611 
H     1.1360637    3.6532964   -0.9464025 
C     1.7723377   -0.9010629   -0.4387865 
C     1.4338545   -1.8629681   -1.6120014 
H     1.6053096   -1.4187444    0.5313871 
H     2.8573653   -0.6508423   -0.4766320 
C     1.9230642   -1.3535378   -2.9694963 
O     2.1118139   -2.2425616   -4.0202126 
O     2.0594506    0.0059092   -3.2287320 
H     1.1409734    0.4102977   -3.3356676 
N     1.9925790   -3.2059130   -1.3409084 
H     0.3269447   -1.9412346   -1.7099944 
H     2.5108780   -3.2760840   -0.4340515 
H     1.2269691   -3.9204329   -1.3253506 
