24
Energy =
C     1.5351583    2.4881582    0.6336721 
C     0.2751436    2.9378965    0.4216263 
C    -0.5905567    2.1812096   -0.2813738 
C     1.9216177    1.2855335    0.1409892 
C     1.0594253    0.5024258   -0.5780925 
C    -0.2134108    0.9743881   -0.7788633 
O    -0.1581134    4.1719696    0.9147054 
H     0.5455038    4.6882576    1.4314089 
H    -0.9693109    0.4421156   -1.3234153 
H     2.9402003    0.9523782    0.3302749 
H     2.2372907    3.0908427    1.1993896 
H    -1.5970760    2.5567960   -0.4421108 
C     1.6382767   -0.8391171   -1.0695115 
C     0.9046009   -1.9158358   -1.9471463 
H     1.9910806   -1.3711637   -0.1578205 
H     2.5739873   -0.5697046   -1.6099455 
C    -0.5648735   -1.7033942   -2.2287641 
O    -1.5137904   -2.2158691   -1.3588851 
O    -0.9907389   -0.8759813   -3.2589339 
H    -1.0772330   -1.4284773   -4.1000745 
N     1.6711173   -2.1304826   -3.1912142 
H     0.9131753   -2.8715162   -1.3691521 
H     2.5921706   -2.5704620   -2.9573396 
H     1.1724914   -2.8259610   -3.7962017 
