24
Energy =
C    -0.6056018    2.1397543   -0.7934308 
C     0.3425734    2.9330375   -1.3417621 
C     1.6240169    2.4853566   -1.4330401 
C    -0.2839108    0.9052747   -0.3305581 
C     0.9974577    0.4541509   -0.4153582 
C     1.9503226    1.2499429   -0.9742003 
O    -0.0265678    4.1995828   -1.8048723 
H     0.7383250    4.7316092   -2.2053899 
H     2.9775873    0.9050912   -1.0586812 
H    -1.0564694    0.2585274    0.0845861 
H    -1.6259876    2.5039589   -0.7373469 
H     2.3900777    3.1136533   -1.8749063 
C     1.3430696   -0.9276818    0.1027481 
C     0.8120927   -2.1099411   -0.7690078 
H     0.9510493   -0.9952623    1.1438357 
H     2.4448859   -1.0325861    0.2136383 
C     0.1288975   -3.1581257    0.0973466 
O    -0.8999614   -2.8056505    0.9658392 
O     0.5377959   -4.4831020    0.0335605 
H    -0.0373305   -5.0278880    0.6634202 
N    -0.0765952   -1.6367646   -1.8519284 
H     1.6866864   -2.6390634   -1.2178959 
H     0.5007176   -1.1526150   -2.5800589 
H    -0.5070373   -2.4624698   -2.3355337 
