24
Energy =
C    -0.6562991    0.5009122    1.1191321 
C     0.1585502   -0.2473905    1.8966629 
C     1.3993568   -0.5776614    1.4484083 
C    -0.2403120    0.9287038   -0.0996847 
C     1.0053183    0.6096338   -0.5497141 
C     1.8195908   -0.1547756    0.2289514 
O    -0.3038378   -0.6628719    3.1484950 
H     0.3561678   -1.2349290    3.6647530 
H     2.8114135   -0.4344712   -0.1192307 
H    -0.9134230    1.5159284   -0.7230751 
H    -1.6483910    0.7462875    1.4842440 
H     2.0572541   -1.1834703    2.0629470 
C     1.4653246    1.0642271   -1.9191953 
C     1.0349500    0.0852896   -3.0263516 
H     2.5735695    1.1628981   -1.9353136 
H     1.0625555    2.0766619   -2.1490815 
C    -0.4754947    0.0207636   -3.1714275 
O    -1.1054671   -1.2005065   -3.3570492 
O    -1.2415620    1.1809062   -3.1344493 
H    -2.2032045    0.9380163   -3.3474716 
N     1.6827612    0.4904850   -4.2840142 
H     1.3713145   -0.9433738   -2.7545359 
H     1.4823688   -0.2415350   -5.0071199 
H     1.2193032    1.3649578   -4.6341164 
