24
Energy =
C     0.0288119    2.4461880   -0.8851566 
C     0.3930280    2.6676336    0.3988485 
C     1.1815538    1.7763262    1.0422701 
C     0.4597900    1.3347025   -1.5342253 
C     1.2627004    0.4381544   -0.8963450 
C     1.6172207    0.6628654    0.3995814 
O    -0.0531759    3.8066003    1.0615771 
H     0.5995569    4.5726635    0.9365872 
H     2.2432744   -0.0507233    0.9305381 
H     0.1568335    1.1672651   -2.5645455 
H    -0.6142179    3.1627531   -1.3847376 
H     1.4538054    1.9595902    2.0761657 
C     1.7268944   -0.8110665   -1.6114719 
C     0.6567429   -1.9234488   -1.5902707 
H     2.6632438   -1.2025541   -1.1482745 
H     1.9914037   -0.5496021   -2.6609701 
C     1.0251153   -3.0415633   -2.5572496 
O     2.2507752   -3.6886548   -2.4630916 
O     0.1467549   -3.4012287   -3.5717956 
H     0.2180453   -2.7321152   -4.3238007 
N     0.5120024   -2.4265543   -0.2122066 
H    -0.3175230   -1.5164038   -1.9503268 
H     0.0162938   -1.7088594    0.3675585 
H    -0.1104328   -3.2703569   -0.2115712 
