24
Energy =
C     0.7536992    0.8797054    1.5557408 
C     0.8139921    2.1832065    1.2016143 
C     1.1028834    2.5246062   -0.0745712 
C     0.9918528   -0.0890078    0.6352272 
C     1.2787447    0.2443594   -0.6553009 
C     1.3379905    1.5617628   -1.0024524 
O     0.5738448    3.1739141    2.1485881 
H     1.4374199    3.4547419    2.5994571 
H     1.5714403    1.8553340   -2.0225604 
H     0.9379359   -1.1320847    0.9388645 
H     0.5072867    0.6189055    2.5794278 
H     1.1393354    3.5744425   -0.3450760 
C     1.5443327   -0.8344613   -1.6905613 
C     0.2644308   -1.5441735   -2.2102423 
H     2.2326296   -1.5922439   -1.2507542 
H     2.0907060   -0.4077435   -2.5609170 
C    -0.4008955   -2.3923160   -1.1259339 
O     0.0785889   -3.6733751   -0.8912221 
O    -1.3612780   -1.8768956   -0.2613564 
H    -2.2434867   -1.7845950   -0.7400963 
N    -0.6392016   -0.6086955   -2.9256117 
H     0.6020862   -2.2995417   -2.9567480 
H    -1.6106853   -0.6268270   -2.5424994 
H    -0.3263716    0.3857272   -2.8464591 
