24
Energy =
C    -0.4124022    1.9683573   -1.8034494 
C    -0.2271974    2.7594496   -0.7220555 
C     0.6391854    2.3879053    0.2479671 
C     0.2629456    0.7957935   -1.9142557 
C     1.1326110    0.4111067   -0.9384601 
C     1.3184758    1.2169988    0.1445441 
O    -0.9210188    3.9602597   -0.6120513 
H    -1.8022334    3.8216406   -0.1295085 
H     2.0108882    0.9342426    0.9327121 
H     0.1057789    0.1688882   -2.7889369 
H    -1.1021491    2.2851111   -2.5786404 
H     0.7855077    3.0381893    1.1037297 
C     1.8776444   -0.9008783   -1.0623333 
C     0.9649845   -2.1182122   -0.7656756 
H     2.7628175   -0.9225397   -0.3879703 
H     2.2811442   -0.9749068   -2.0987293 
C     1.5994438   -3.4053975   -1.2794519 
O     1.2623458   -3.8853126   -2.5370493 
O     2.5868558   -4.0557906   -0.5493227 
H     3.4614375   -3.5680338   -0.6708181 
N     0.5983900   -2.1842874    0.6712346 
H     0.0245900   -2.0219987   -1.3567858 
H     0.9531234   -3.0657518    1.1193415 
H     1.0007868   -1.3958350    1.2271669 
