24
Energy =
C     1.0138839    2.7712091   -0.9745569 
C    -0.2441208    2.8965827   -0.4933363 
C    -0.8620571    1.8196725    0.0611925 
C     1.6620214    1.5803974   -0.9060225 
C     1.0500540    0.5007666   -0.3458132 
C    -0.2179162    0.6269152    0.1333502 
O    -0.8783896    4.1395748   -0.5830435 
H    -1.8194779    4.1507652   -0.2051691 
H    -0.7249503   -0.2351549    0.5597802 
H     2.6700503    1.5001751   -1.3040699 
H     1.4940383    3.6371493   -1.4175959 
H    -1.8738017    1.9084126    0.4423807 
C     1.7596148   -0.8375692   -0.2705730 
C     1.2650479   -1.9122899   -1.2952192 
H     1.6681299   -1.2040812    0.7771527 
H     2.8538153   -0.6934877   -0.4103260 
C     0.8471112   -3.2110763   -0.6033307 
O     1.5274101   -3.6573059    0.5225220 
O    -0.1482439   -4.0165801   -1.1398338 
H    -1.0393785   -3.6860233   -0.8013076 
N     0.1957033   -1.3746270   -2.1640448 
H     2.1315344   -2.2117505   -1.9305065 
H     0.5979688   -0.6223083   -2.7723737 
H    -0.1182747   -2.1234673   -2.8298209 
