24
Energy =
C     0.2151712    2.3853791   -1.5048079 
C    -0.1224771    2.7604275   -0.2422334 
C     0.2183787    1.9724349    0.8025025 
C     0.8897874    1.2266854   -1.7147669 
C     1.2324351    0.4313663   -0.6636200 
C     0.8930575    0.8125686    0.5987809 
O    -0.8169131    3.9482045    0.0094031 
H    -1.0392347    4.4813756   -0.8242901 
H     1.1573358    0.1958250    1.4535708 
H     1.1545914    0.9410162   -2.7300334 
H    -0.0532064    3.0112463   -2.3490453 
H    -0.0567250    2.2836717    1.8043355 
C     1.9790644   -0.8633863   -0.9037192 
C     1.0649932   -1.9655456   -1.4965174 
H     2.4509044   -1.2393857    0.0327539 
H     2.8218221   -0.6570152   -1.6030637 
C     1.9049478   -3.1116312   -2.0350953 
O     2.5221697   -4.0070586   -1.1695122 
O     2.1136445   -3.2349047   -3.4009037 
H     2.6998877   -4.0439940   -3.5647259 
N     0.0404614   -2.4096649   -0.5174568 
H     0.5413700   -1.5659002   -2.3956744 
H     0.1405602   -3.4310733   -0.2967508 
H     0.1275883   -1.9176273    0.4009538 
