24
Energy =
C     1.1687109    2.7129163   -0.7478622 
C     0.4054156    2.8450815    0.3700405 
C     0.0350525    1.7429687    1.0608293 
C     1.5583247    1.4818744   -1.1665515 
C     1.1923654    0.3729663   -0.4668995 
C     0.4211820    0.5095005    0.6468026 
O    -0.0146515    4.0979264    0.8276736 
H     0.3060138    4.8739144    0.2586553 
H     0.1059548   -0.3669142    1.2085544 
H     2.1592438    1.3892148   -2.0680934 
H     1.4660459    3.5908792   -1.3112667 
H    -0.5773367    1.8627282    1.9480190 
C     1.6056251   -1.0028218   -0.9429566 
C     0.6475288   -1.7513443   -1.9447924 
H     1.7971978   -1.6287852   -0.0405545 
H     2.6124810   -0.9257401   -1.4114776 
C     0.3200006   -3.1701684   -1.4626457 
O     1.2869714   -3.9217637   -0.8087655 
O    -0.8838047   -3.7838405   -1.7845803 
H    -0.8413482   -4.0965483   -2.7437224 
N    -0.5508945   -0.9769818   -2.3762894 
H     1.2437365   -1.9398165   -2.8658472 
H    -1.4392159   -1.5110558   -2.2171349 
H    -0.7021825   -0.0747428   -1.8801460 
