24
Energy =
C     1.8340589    2.3205280   -1.5150213 
C     1.0247167    2.9329266   -0.6214006 
C     0.3277204    2.1858938    0.2760355 
C     1.9550774    0.9693755   -1.5197205 
C     1.2637047    0.2159019   -0.6201597 
C     0.4465611    0.8340803    0.2769803 
O     0.9287449    4.3280946   -0.6469849 
H     0.2821423    4.7086600    0.0359132 
H    -0.1258244    0.2516977    0.9941246 
H     2.6005152    0.4932884   -2.2535266 
H     2.3798728    2.9265299   -2.2298130 
H    -0.3300778    2.6667487    0.9922099 
C     1.3856618   -1.2952531   -0.6334088 
C     0.3417486   -1.9829469   -1.5382768 
H     1.2999267   -1.6899011    0.4034493 
H     2.4010938   -1.5855919   -0.9851646 
C    -1.0913777   -1.7417159   -1.0752578 
O    -1.8217539   -0.6563233   -1.5419514 
O    -1.6611102   -2.5785853   -0.1255034 
H    -1.3238420   -2.3194455    0.7891302 
N     0.5778178   -1.5982279   -2.9428867 
H     0.4914799   -3.0841479   -1.4429347 
H    -0.0047288   -2.2111379   -3.5626652 
H     0.2154414   -0.6262268   -3.1027397 
