24
Energy =
C     0.8113454    2.6264384   -1.8671017 
C     0.2884867    3.0658185   -0.6987890 
C     0.2826798    2.2576091    0.3861055 
C     1.3433850    1.3806321   -1.9513096 
C     1.3529293    0.5660843   -0.8592819 
C     0.8154930    1.0117526    0.3108624 
O    -0.2496272    4.3470469   -0.6149077 
H     0.4610348    5.0201207   -0.3500964 
H     0.7946237    0.3675051    1.1868102 
H     1.7547717    1.0418300   -2.8983865 
H     0.7940921    3.2786832   -2.7332693 
H    -0.1590207    2.6135828    1.3105479 
C     1.9337300   -0.8305111   -0.9472998 
C     0.8836855   -1.9782116   -1.0384334 
H     2.5782690   -0.9979687   -0.0553166 
H     2.6426929   -0.8921386   -1.8044909 
C    -0.5878769   -1.5488053   -0.9456629 
O    -1.2962902   -1.8272132    0.2163098 
O    -1.2377693   -0.8751787   -1.9791118 
H    -0.6032844   -0.6385945   -2.7238474 
N     1.1720460   -2.8020028   -2.2284697 
H     1.0293061   -2.6235377   -0.1387749 
H     0.5306474   -3.6325061   -2.2446589 
H     0.9870761   -2.2614842   -3.1057502 
