24
Energy =
C    -0.1861354    2.1426500   -1.8918592 
C    -0.4662676    2.7110557   -0.6888693 
C     0.0906812    2.2055423    0.4348687 
C     0.6470614    1.0736793   -1.9636342 
C     1.2070158    0.5621974   -0.8324292 
C     0.9243805    1.1366223    0.3692342 
O    -1.3200324    3.8133763   -0.5792090 
H    -1.6993788    4.1321958   -1.4642323 
H     1.3623832    0.7480495    1.2845255 
H     0.8633767    0.6308049   -2.9328007 
H    -0.6274214    2.5418298   -2.7987607 
H    -0.1402944    2.6692933    1.3876629 
C     2.1307470   -0.6341982   -0.9165185 
C     1.3613233   -1.9536408   -1.1885248 
H     2.7375518   -0.7418379    0.0109507 
H     2.8695787   -0.4519153   -1.7312810 
C     2.3144085   -3.0536192   -1.6396054 
O     2.0008538   -3.8337749   -2.7432979 
O     3.4943993   -3.3005069   -0.9488972 
H     3.2922060   -3.8606476   -0.1348394 
N     0.5347708   -2.3497030   -0.0214703 
H     0.6817817   -1.8037043   -2.0596061 
H     0.8251186   -3.2775083    0.3692321 
H     0.5991302   -1.6644678    0.7663329 
