24
Energy =
C     1.4798944    2.1861934    1.1775266 
C     0.2826508    2.7527689    0.9272920 
C    -0.5408000    2.2068199    0.0095653 
C     1.8528792    1.0631309    0.5155406 
C     1.0310954    0.4823244   -0.4135214 
C    -0.1770633    1.0823568   -0.6601493 
O    -0.0988380    3.9049945    1.6073642 
H    -0.5963393    3.6691037    2.4592004 
H    -0.8886135    0.7166044   -1.3708602 
H     2.8254881    0.6299984    0.7382472 
H     2.1387886    2.6415006    1.9093409 
H    -1.4959791    2.6819380   -0.1876738 
C     1.5849904   -0.7837818   -1.0926096 
C     0.8321737   -1.6945519   -2.1339867 
H     1.9116378   -1.4358446   -0.2489259 
H     2.5357779   -0.4724679   -1.5808644 
C     0.8907656   -3.1646431   -1.7187737 
O     0.0617244   -3.6550202   -0.7185496 
O     1.8297183   -4.0127850   -2.2926697 
H     2.7269334   -3.8552119   -1.8580720 
N    -0.5430582   -1.2624816   -2.4261576 
H     1.4137151   -1.6671653   -3.0869832 
H    -0.5196471   -0.5861253   -3.2262543 
H    -1.1276185   -2.0691554   -2.7563363 
