24
Energy =
C     0.4809357    2.4412661   -1.5224367 
C    -0.0842446    2.7922646   -0.3366426 
C     0.0070423    1.9545608    0.7209347 
C     1.1321472    1.2567342   -1.6435786 
C     1.2239601    0.4115568   -0.5795282 
C     0.6571570    0.7687779    0.6059364 
O    -0.7620906    4.0053258   -0.1775234 
H    -0.7891106    4.5768017   -1.0150286 
H     0.7188158    0.1120834    1.4695334 
H     1.5803493    0.9905898   -2.5978146 
H     0.4134847    3.1070895   -2.3760234 
H    -0.4478826    2.2470432    1.6610120 
C     1.9447762   -0.9120831   -0.7216933 
C     1.1089120   -1.9528266   -1.5096933 
H     2.2185931   -1.3325922    0.2731239 
H     2.9130829   -0.7321190   -1.2433358 
C     1.9776432   -3.1340354   -1.9144618 
O     2.6542999   -3.8707224   -0.9524071 
O     2.0875598   -3.4963151   -3.2488638 
H     1.2660024   -4.0211011   -3.5125978 
N    -0.1012500   -2.3639994   -0.7542203 
H     0.7842083   -1.4970999   -2.4735876 
H    -0.1230914   -3.4017292   -0.5991414 
H    -0.1320950   -1.9451435    0.2040581 
