24
Energy =
C     0.3702543    2.1984445    0.6156428 
C     0.1667585    2.9750841   -0.4817852 
C     0.5186659    2.5124931   -1.7030038 
C     0.9294323    0.9688407    0.4863652 
C     1.2987559    0.5082020   -0.7411354 
C     1.0793675    1.2839957   -1.8381204 
O    -0.4024170    4.2483797   -0.3830192 
H    -0.6587662    4.5146069    0.5614480 
H     1.3371220    0.9214917   -2.8299535 
H     1.0663200    0.3488873    1.3688680 
H     0.0796606    2.5554747    1.5978172 
H     0.3373175    3.1358382   -2.5720421 
C     1.8953706   -0.8778689   -0.8913550 
C     0.8518992   -2.0179067   -1.0762332 
H     2.5241866   -1.1042052   -0.0020774 
H     2.6127977   -0.8753967   -1.7427257 
C    -0.6045663   -1.5628981   -1.0257630 
O    -1.2602485   -1.1359699   -2.1754584 
O    -1.2716739   -1.5142827    0.1905139 
H    -2.2105151   -1.1728867    0.0260279 
N     1.1699423   -2.7631831   -2.3092065 
H     0.9556312   -2.7129496   -0.2106994 
H     0.5508786   -3.6073693   -2.3654028 
H     0.9162643   -2.1726939   -3.1391134 
