24
Energy =
C    -0.4004057    0.4364845    1.4919750 
C    -0.9706121    1.6209462    1.1468213 
C    -0.5326730    2.2781272    0.0495413 
C     0.6022394   -0.0829820    0.7393052 
C     1.0399450    0.5726213   -0.3726314 
C     0.4680010    1.7624016   -0.7090449 
O    -2.0027561    2.1867097    1.9027108 
H    -2.2908370    1.6214610    2.6940255 
H     0.8052196    2.3115680   -1.5834079 
H     1.0477409   -1.0307929    1.0320899 
H    -0.7450403   -0.0989540    2.3699105 
H    -0.9957434    3.2230939   -0.2125718 
C     2.1589701   -0.0096228   -1.2179761 
C     1.6961516   -1.1383057   -2.1798603 
H     2.9513906   -0.4029123   -0.5424395 
H     2.6509305    0.7931112   -1.8115314 
C     1.1088236   -2.3340422   -1.4289966 
O    -0.2679554   -2.5079568   -1.3427524 
O     1.9360677   -3.2311272   -0.7483925 
H     2.9136498   -3.0034091   -0.8521387 
N     0.7654218   -0.6330221   -3.2126225 
H     2.6092213   -1.5316382   -2.6835848 
H     0.5761664    0.3912475   -3.1256110 
H     1.1630375   -0.7906769   -4.1682906 
