24
Energy =
C     0.1048375    2.1497338   -2.1463527 
C     0.2332624    2.9008500   -1.0201552 
C     0.8310949    2.3718509    0.0715958 
C     0.5761834    0.8775799   -2.1749942 
C     1.1877768    0.3473688   -1.0795397 
C     1.3052750    1.1004550    0.0482752 
O    -0.2418165    4.2147390   -0.9568997 
H    -0.6784200    4.5378782   -1.8134684 
H     1.7701101    0.6872083    0.9401464 
H     0.4590091    0.2864030   -3.0800444 
H    -0.3777010    2.5630379   -3.0253738 
H     0.9204225    2.9789613    0.9658540 
C     1.6923799   -1.0792470   -1.1025559 
C     0.6055005   -2.0651765   -0.6380434 
H     2.5850109   -1.1763128   -0.4446224 
H     2.0276325   -1.3350704   -2.1337323 
C     0.9753258   -3.4969768   -1.0109241 
O     0.4961823   -4.0457442   -2.1919236 
O     1.8599783   -4.2360404   -0.2348827 
H     2.8033791   -3.9511822   -0.4502720 
N     0.3888404   -1.8746040    0.8127656 
H    -0.3364633   -1.8506384   -1.1985478 
H    -0.6136478   -1.6249167    0.9839233 
H     0.5694288   -2.7560942    1.3531888 
