24
Energy =
C     1.2228074    2.0528209    1.4566746 
C     0.0263755    2.5908463    1.1465777 
C    -0.6862713    2.0955209    0.1144593 
C     1.7057932    1.0085298    0.7392168 
C     0.9974058    0.4797601   -0.3070011 
C    -0.2116820    1.0502542   -0.6116987 
O    -0.4682426    3.6621222    1.8838642 
H    -1.0286838    3.3316633    2.6619632 
H    -0.8395447    0.7200373   -1.4127871 
H     2.6746597    0.5964378    1.0131594 
H     1.7922874    2.4673662    2.2817915 
H    -1.6421555    2.5472832   -0.1285740 
C     1.6682619   -0.6979063   -1.0375361 
C     1.0539269   -1.5435665   -2.2170842 
H     1.9561007   -1.4069836   -0.2260671 
H     2.6429505   -0.3080175   -1.4075928 
C     1.1624126   -3.0435343   -1.9402872 
O     0.7104666   -3.5842341   -0.7436560 
O     1.6887166   -3.8922774   -2.9052501 
H     0.9847535   -4.0659145   -3.6071640 
N    -0.3161686   -1.1540102   -2.5874311 
H     1.7152960   -1.3952082   -3.1048520 
H    -0.2651715   -0.3979466   -3.3118521 
H    -0.8276975   -1.9475175   -3.0432796 
