24
Energy =
C    -0.0089019    2.4116353   -1.1907438 
C     0.2431276    2.8080347    0.0779986 
C     0.9785117    2.0234363    0.8989163 
C     0.4680898    1.2234896   -1.6414413 
C     1.2090359    0.4279401   -0.8206193 
C     1.4593913    0.8339358    0.4553958 
O    -0.2484136    4.0261497    0.5367914 
H    -1.1661804    3.9094647    0.9519352 
H     2.0435170    0.2097579    1.1276166 
H     0.2565000    0.9164344   -2.6627607 
H    -0.5915921    3.0549039   -1.8413195 
H     1.1801550    2.3582385    1.9107791 
C     1.7298515   -0.9020193   -1.3184787 
C     0.6517821   -2.0064484   -1.2663270 
H     2.6125984   -1.2289075   -0.7223323 
H     2.1011874   -0.7765664   -2.3614080 
C     1.0791400   -3.2168241   -2.0834441 
O     0.1523523   -3.8794712   -2.8762537 
O     2.3752110   -3.7073657   -2.0036453 
H     2.4234018   -4.3258787   -1.2072805 
N     0.3992638   -2.3721408    0.1399239 
H    -0.2870499   -1.6380156   -1.7451012 
H    -0.0648379   -1.5682558    0.6254878 
H    -0.3013262   -3.1521497    0.1707367 
