24
Energy =
C     1.4268269    2.6993434   -0.0792346 
C     0.2414950    2.9674159   -0.6686078 
C    -0.5097005    1.9596064   -1.1629924 
C     1.8632556    1.4186337    0.0234343 
C     1.1199123    0.3886098   -0.4768184 
C    -0.0819974    0.6749603   -1.0655970 
O    -0.2029593    4.2816560   -0.7722849 
H    -0.7601168    4.5372190    0.0356690 
H    -0.7192349   -0.0980488   -1.4732593 
H     2.8178657    1.2268998    0.5087550 
H     2.0229523    3.5191763    0.3077358 
H    -1.4559781    2.1918379   -1.6399304 
C     1.6568933   -1.0297568   -0.3030638 
C     1.0282741   -2.1382800   -1.1938025 
H     1.5441787   -1.3229550    0.7647621 
H     2.7558857   -0.9916313   -0.4850319 
C     2.0659084   -3.2014000   -1.5623561 
O     1.7537003   -4.5541660   -1.5171822 
O     3.3049016   -2.8219389   -2.0659465 
H     3.1988187   -2.5429158   -3.0304470 
N    -0.1163263   -2.7278574   -0.4716454 
H     0.6995290   -1.7207718   -2.1708890 
H    -0.8784585   -2.0250194   -0.3459877 
H    -0.5245984   -3.5134717   -1.0353095 
