24
Energy =
C     2.1069692    2.5048895   -0.0679144 
C     1.0259507    3.1794885   -0.5056493 
C    -0.0255610    2.4939681   -1.0175282 
C     2.1457736    1.1516310   -0.1365563 
C     1.0956109    0.4365638   -0.6465992 
C     0.0051503    1.1377590   -1.0903580 
O     1.0215749    4.5753234   -0.4191390 
H     0.1733297    5.0103413   -0.7656120 
H    -0.8646745    0.6827631   -1.5089685 
H     3.0365928    0.6420805    0.2253694 
H     2.9438245    3.0628928    0.3390810 
H    -0.8988574    3.0313354   -1.3728607 
C     1.2856857   -1.0919890   -0.6639562 
C     0.2735355   -2.1988066   -1.1549641 
H     1.5892549   -1.3548537    0.3760730 
H     2.2175270   -1.2638526   -1.2502012 
C     0.0948148   -3.2893790   -0.1073291 
O     0.9298993   -4.3983248   -0.1193489 
O    -0.8024333   -3.1321049    0.9426375 
H    -0.3884252   -2.5379402    1.6442201 
N    -1.0290162   -1.7228394   -1.6275071 
H     0.7514315   -2.7433948   -2.0043760 
H    -1.5655848   -1.2504722   -0.8608152 
H    -0.9405892   -1.1739447   -2.5132169 
