24
Energy =
C    -0.8390474    1.6188035    0.2771679 
C    -0.1045373    2.7047143   -0.0558336 
C     1.1602006    2.5528414   -0.5113043 
C    -0.3053689    0.3752661    0.1675532 
C     0.9725763    0.2144915   -0.2755227 
C     1.7003947    1.3123323   -0.6246754 
O    -0.6543783    3.9774694    0.0584359 
H    -0.4724366    4.3654642    0.9774687 
H     2.7149410    1.2057181   -1.0007020 
H    -0.9097051   -0.4927689    0.4193345 
H    -1.8589574    1.7545305    0.6208812 
H     1.7308014    3.4320147   -0.7909999 
C     1.5629469   -1.1721487   -0.4190883 
C     1.1442800   -1.8345881   -1.7473938 
H     1.2475292   -1.8126055    0.4348758 
H     2.6736650   -1.1157898   -0.3583933 
C     2.0016269   -3.0655084   -2.0538188 
O     2.4576732   -3.8646343   -1.0117980 
O     2.2941805   -3.4404058   -3.3644350 
H     1.8622139   -2.8275703   -4.0399339 
N    -0.2919674   -2.1620088   -1.6900028 
H     1.3224269   -1.1009895   -2.5675361 
H    -0.6177034   -2.4427332   -2.6458314 
H    -0.4385635   -2.9986010   -1.0729422 
