24
Energy =
C    -1.1964812    1.3934835   -0.2282982 
C    -0.6642147    2.5825988    0.1245940 
C     0.6683086    2.7761658    0.0391960 
C    -0.3998139    0.3897212   -0.6776710 
C     0.9557531    0.5711515   -0.7758628 
C     1.4739502    1.7812604   -0.4085932 
O    -1.4880291    3.6051370    0.5846975 
H    -1.8021536    4.1859894   -0.1852275 
H     2.5446476    1.9633880   -0.4691811 
H    -0.8938043   -0.5302081   -0.9430579 
H    -2.2688662    1.2513362   -0.1450852 
H     1.0837729    3.7333072    0.3359316 
C     1.9528184   -0.4813342   -1.2694526 
C     1.4382709   -1.8988331   -1.7217158 
H     2.7251334   -0.5784244   -0.4781113 
H     2.5066280   -0.0125172   -2.1151089 
C     1.6815581   -2.1253099   -3.2096603 
O     0.7286660   -1.7088823   -4.1309031 
O     2.8898202   -2.6289743   -3.6764898 
H     3.5566557   -1.8764001   -3.7389400 
N     2.0471609   -2.9885931   -0.9229926 
H     0.3435298   -1.9963499   -1.6464411 
H     2.7160539   -2.6675216   -0.1875803 
H     1.3014461   -3.5352176   -0.4307862 
