24
Energy =
C     1.5249723    1.7955737    0.9164801 
C     1.9320627    2.6226665   -0.0730852 
C     2.0760443    2.1394454   -1.3357588 
C     1.2623853    0.4892447    0.6578815 
C     1.4163758   -0.0027855   -0.6020238 
C     1.8184102    0.8331911   -1.5998622 
O     2.1940379    3.9617748    0.2341702 
H     2.4672887    4.5217098   -0.5661230 
H     1.9184439    0.4648487   -2.6199268 
H     0.9268270   -0.1552324    1.4660829 
H     1.4072274    2.1954010    1.9177889 
H     2.3902045    2.7978574   -2.1385653 
C     1.1046851   -1.4547666   -0.8979283 
C    -0.3426388   -1.6372071   -1.4116860 
H     1.2561394   -2.0627878    0.0213007 
H     1.8250115   -1.8500067   -1.6507382 
C    -0.5252492   -1.0136747   -2.7848097 
O    -1.1701068    0.2073442   -2.9145716 
O     0.0470424   -1.5956771   -3.9076410 
H    -0.5505970   -2.3526843   -4.2059916 
N    -0.6910847   -3.0701847   -1.4214104 
H    -1.0513258   -1.0928031   -0.7419465 
H     0.0288111   -3.6126117   -1.9583642 
H    -0.6941482   -3.4389141   -0.4411015 
