24
Energy =
C    -0.1352374    1.8621950    0.8233398 
C    -0.1921822    2.7293045   -0.2226171 
C     0.4293802    2.4187276   -1.3827985 
C     0.5421234    0.6922569    0.7035461 
C     1.1712099    0.3803401   -0.4632936 
C     1.1079226    1.2501004   -1.5085020 
O    -0.8821958    3.9424939   -0.1330898 
H    -1.3184623    4.1045016    0.7681189 
H     1.5992376    1.0168836   -2.4498941 
H     0.5737138    0.0069647    1.5467518 
H    -0.6325055    2.1017501    1.7570483 
H     0.3749640    3.1187663   -2.2094744 
C     1.9141993   -0.9296867   -0.6093341 
C     1.0928175   -1.9895556   -1.3887110 
H     2.2023756   -1.3354085    0.3862504 
H     2.8760775   -0.7303093   -1.1362072 
C     1.9296299   -3.2287382   -1.7278192 
O     3.3137819   -3.1290651   -1.8078007 
O     1.3350980   -4.4450842   -2.0559837 
H     0.3316141   -4.3881917   -1.9607183 
N    -0.1277741   -2.3431529   -0.6353414 
H     0.8052413   -1.5695965   -2.3806731 
H     0.1127532   -2.5944308    0.3543412 
H    -0.7778938   -1.5211676   -0.6005976 
