24
Energy =
C     0.2306974    0.7929116    1.6073723 
C    -0.0981162    2.0236718    1.1529271 
C     0.2220373    2.3863078   -0.1100510 
C     0.8944124   -0.0764757    0.8033066 
C     1.2304919    0.2840246   -0.4679005 
C     0.8840947    1.5220824   -0.9206314 
O    -0.7722616    2.9145914    1.9822429 
H    -0.1164931    3.4872340    2.5015971 
H     1.1253538    1.8225717   -1.9364735 
H     1.1456507   -1.0638994    1.1829144 
H    -0.0487646    0.5079355    2.6160624 
H    -0.0640370    3.3693657   -0.4677668 
C     1.9605448   -0.6867096   -1.3779335 
C     1.0001674   -1.5236741   -2.2537505 
H     2.6013154   -1.3666364   -0.7717765 
H     2.6574770   -0.1249372   -2.0374424 
C     0.1331326   -2.4651459   -1.4147682 
O     0.6785312   -3.1072409   -0.3089674 
O    -1.1390711   -2.8375167   -1.8330293 
H    -1.0570609   -3.5044672   -2.5851875 
N     0.2102877   -0.6150228   -3.1059412 
H     1.6171593   -2.1869862   -2.9011124 
H     0.8346552   -0.2059209   -3.8393993 
H    -0.5310486   -1.1518058   -3.6160021 
