24
Energy =
C     1.6757329    2.5572951   -0.6471217 
C     0.4364054    3.0174724   -0.3584631 
C    -0.5265249    2.1597576    0.0501039 
C     1.9599235    1.2358426   -0.5190141 
C     0.9980084    0.3677227   -0.0982031 
C    -0.2502802    0.8375976    0.1814826 
O     0.1488189    4.3714792   -0.4937892 
H     0.3316913    4.8662477    0.3724379 
H    -1.0351373    0.1544663    0.5007503 
H     2.9576926    0.8783052   -0.7609047 
H     2.4337020    3.2551242   -0.9875198 
H    -1.5199880    2.5400839    0.2626346 
C     1.3011953   -1.1108401    0.0308520 
C     0.9872361   -1.9803525   -1.2327894 
H     0.7490261   -1.4990592    0.9187621 
H     2.3728246   -1.2440955    0.2986009 
C     0.1274581   -3.1782608   -0.8711542 
O     0.6109494   -4.4686938   -1.0508343 
O    -1.1291454   -2.9970445   -0.3041016 
H    -1.5481297   -3.9069281   -0.1589665 
N     0.3802925   -1.2144995   -2.3389781 
H     1.9414004   -2.4215732   -1.6034877 
H    -0.5502864   -0.8322758   -2.0442765 
H     0.9990864   -0.4218917   -2.6273954 
