24
Energy =
C     1.0128713    2.2059846    0.4449816 
C     0.4757788    2.9386303   -0.5572221 
C     0.3717101    2.4003639   -1.8018173 
C     1.4495622    0.9418106    0.2152263 
C     1.3553635    0.4014562   -1.0304437 
C     0.8058033    1.1363091   -2.0368585 
O     0.0365682    4.2376736   -0.2811777 
H    -0.3504725    4.7219913   -1.0838071 
H     0.7095984    0.7176224   -3.0356532 
H     1.8663656    0.3626810    1.0360925 
H     1.0848574    2.6436097    1.4347635 
H    -0.0612904    2.9781612   -2.6112208 
C     1.8184534   -1.0163868   -1.2847679 
C     0.6882457   -2.0324262   -1.0385385 
H     2.6808408   -1.2647057   -0.6240357 
H     2.1959435   -1.1042377   -2.3289341 
C     1.0543464   -3.3966003   -1.6075462 
O     2.3029207   -3.9535419   -1.3642379 
O     0.1250422   -4.1141583   -2.3473760 
H    -0.5180748   -4.5675857   -1.7147585 
N     0.4031801   -2.0724096    0.4122453 
H    -0.2164761   -1.7082271   -1.6069206 
H    -0.5698073   -1.7279554    0.5907598 
H     0.4632712   -3.0454706    0.7991571 
