24
Energy =
C    -0.3551685    1.0235073    1.3015059 
C    -0.3983621    2.2746855    0.7895943 
C     0.3348815    2.5843964   -0.3041050 
C     0.4187734    0.0739629    0.7169795 
C     1.1595430    0.3776712   -0.3844442 
C     1.1110015    1.6395586   -0.8956021 
O    -1.1936395    3.2455216    1.3896429 
H    -2.1138894    3.2643587    0.9636066 
H     1.6896459    1.8980737   -1.7796405 
H     0.4296755   -0.9330247    1.1276105 
H    -0.9487089    0.7883787    2.1783246 
H     0.2936514    3.5950344   -0.6961462 
C     2.0031383   -0.6882115   -1.0531743 
C     1.2322943   -1.6180013   -2.0374840 
H     2.4823117   -1.3124324   -0.2664647 
H     2.8559019   -0.2014815   -1.5786391 
C    -0.2559287   -1.2973903   -2.1935656 
O    -1.1731939   -1.8285695   -1.2959255 
O    -0.7141057   -0.4658103   -3.2072325 
H    -0.6081938    0.4895643   -2.9067336 
N     1.9403229   -1.6208229   -3.3320053 
H     1.2458319   -2.6510355   -1.6166229 
H     2.8260156   -2.1715991   -3.2361362 
H     1.3620700   -2.1217342   -4.0505785 
