24
Energy =
C     1.4696559    2.5749281   -0.7454678 
C     0.2041740    2.8499557   -0.3304216 
C    -0.5779596    1.8506786    0.1363322 
C     1.9458423    1.3050748   -0.6884145 
C     1.1627308    0.2999767   -0.2073788 
C    -0.1065990    0.5795017    0.1970454 
O    -0.3174474    4.1467259   -0.3751823 
H     0.3270802    4.8386400   -0.7420077 
H    -0.7545686   -0.2148994    0.5583788 
H     2.9569817    1.1002229   -1.0326383 
H     2.1021729    3.3692333   -1.1271019 
H    -1.5884692    2.0822707    0.4549384 
C     1.6844482   -1.1199755   -0.1627376 
C     1.2865769   -1.9078462   -1.4254115 
H     1.3020260   -1.6443303    0.7413569 
H     2.7936783   -1.1074478   -0.0583578 
C     2.0906746   -3.1957275   -1.5289441 
O     3.0827957   -3.3136213   -2.4913153 
O     1.9001180   -4.2312670   -0.6227386 
H     1.0700743   -4.7447780   -0.8782032 
N    -0.1706153   -2.1417581   -1.4178619 
H     1.5591514   -1.3055263   -2.3250638 
H    -0.4537844   -2.5869942   -2.3239170 
H    -0.4255155   -2.8100519   -0.6519225 
