24
Energy =
C    -0.0717784    1.5355023    1.3412209 
C    -0.0165257    2.6729343    0.6106713 
C     0.6003634    2.6754681   -0.5931928 
C     0.4859037    0.3922594    0.8665466 
C     1.1130039    0.3884008   -0.3431784 
C     1.1612781    1.5367627   -1.0742089 
O    -0.5901749    3.8418839    1.0998879 
H    -1.5580804    3.9153852    0.8065031 
H     1.6412643    1.5458535   -2.0492169 
H     0.4269710   -0.5179609    1.4591126 
H    -0.5646848    1.5502569    2.3075567 
H     0.6394263    3.5954827   -1.1662928 
C     1.7178677   -0.8904143   -0.8874766 
C     0.7972393   -1.6811361   -1.8746209 
H     2.0424943   -1.5223117   -0.0317695 
H     2.6683334   -0.6397565   -1.4079801 
C     0.5978361   -3.1489063   -1.4955300 
O     1.2834517   -3.7336589   -0.4366975 
O    -0.2610339   -3.9385115   -2.2471158 
H    -0.2491481   -4.8779613   -1.8694917 
N    -0.4910580   -0.9892377   -2.0828962 
H     1.3247302   -1.7261826   -2.8548740 
H    -1.0099028   -1.4766671   -2.8537880 
H    -1.0841307   -1.1111635   -1.2276601 
