24
Energy =
C    -0.7309889    1.9119451   -0.3309586 
C     0.0513132    2.9211230   -0.7749465 
C     1.3567683    2.6981296   -1.0573690 
C    -0.2204227    0.6467401   -0.2053837 
C     1.1182364    0.4393119   -0.4522533 
C     1.8949338    1.4623459   -0.8948767 
O    -0.4819112    4.1975469   -0.9243297 
H    -0.8318014    4.3295721   -1.8674859 
H     2.9467026    1.3022772   -1.1151356 
H    -0.8743143   -0.3274945    0.3204876 
H    -1.7683872    2.1073151   -0.0881372 
H     1.9693389    3.5245674   -1.4015177 
C     1.6609973   -0.9618602   -0.2588191 
C     0.9330672   -2.0032952   -1.1598349 
H     1.5146983   -1.2439593    0.8072021 
H     2.7575731   -0.9972985   -0.4374356 
C    -0.5927013   -1.8313166   -1.1843643 
O    -1.1678216   -0.6166378   -0.7583617 
O    -1.4257528   -2.8025370   -1.7243142 
H    -0.8918587   -3.5443133   -2.1543700 
N     1.4780385   -1.9525817   -2.5252261 
H     1.1189461   -3.0183943   -0.7407685 
H     1.2901835   -1.0055631   -2.9361944 
H     2.5145035   -2.0942406   -2.5086867 
