24
Energy =
C    -0.7801919    1.8019934   -0.0678285 
C     0.0952124    2.7902852   -0.3630169 
C     1.3841578    2.4914704   -0.6452887 
C    -0.3702261    0.5082801   -0.0595100 
C     0.9266568    0.1993978   -0.3402391 
C     1.8017012    1.1998940   -0.6394273 
O    -0.3287365    4.1149156   -0.3692256 
H    -0.6737362    4.3793328   -1.2857980 
H     2.8390863    0.9732477   -0.8784131 
H    -1.0845767   -0.2771767    0.1736017 
H    -1.8088534    2.0568972    0.1637866 
H     2.0770403    3.2946989   -0.8743136 
C     1.3807913   -1.2438963   -0.3598959 
C     1.0496353   -1.9326085   -1.7041137 
H     0.8905201   -1.7938229    0.4737198 
H     2.4765945   -1.3081413   -0.1676405 
C     1.7360192   -1.2481714   -2.8797646 
O     3.1228848   -1.2422593   -2.9804428 
O     0.9883791   -0.5294263   -3.8056355 
H     0.7737015    0.3774002   -3.4194180 
N     1.4077448   -3.3590906   -1.6323733 
H    -0.0444804   -1.8560773   -1.8996790 
H     2.4350164   -3.4612943   -1.4455596 
H     0.8932604   -3.8217121   -0.8466994 
