24
Energy =
C     0.4931814    2.5450814   -0.6994228 
C     0.4531034    2.4658342    0.6574163 
C     0.8481367    1.3278537    1.2725330 
C     0.9273472    1.4880552   -1.4315431 
C     1.3270869    0.3423556   -0.8135183 
C     1.2856925    0.2687667    0.5451316 
O     0.0094858    3.5358301    1.4408592 
H    -0.2678253    4.3532078    0.9083607 
H     1.5897714   -0.6414705    1.0583443 
H     0.9509749    1.5612715   -2.5164706 
H     0.1773266    3.4532552   -1.2014363 
H     0.8058333    1.2753401    2.3553767 
C     1.8042181   -0.8411198   -1.6287602 
C     0.6858179   -1.8424771   -1.9926325 
H     2.6091431   -1.3749370   -1.0730272 
H     2.2796201   -0.4831530   -2.5696316 
C     0.0617843   -2.5271899   -0.7723513 
O     0.5323121   -3.7797658   -0.4024801 
O    -0.9283882   -1.9343603    0.0114392 
H    -1.1412536   -0.9966695   -0.2842364 
N    -0.2885069   -1.2144295   -2.9069485 
H     1.1800956   -2.6748490   -2.5487498 
H    -0.9883580   -1.9337501   -3.2121703 
H    -0.8287655   -0.4595881   -2.4266150 
