24
Energy =
C     0.8270795    1.4740025    1.4366686 
C     0.5402123    2.6270569    0.7900206 
C     0.6145156    2.6825827   -0.5593391 
C     1.1978031    0.3722240    0.7351409 
C     1.2893744    0.4253233   -0.6227262 
C     0.9891368    1.5865755   -1.2676534 
O     0.1570098    3.7523995    1.5128317 
H     0.9685189    4.2965795    1.7839548 
H     1.0335540    1.6432772   -2.3539942 
H     1.4188369   -0.5499335    1.2667117 
H     0.7488618    1.4419535    2.5179642 
H     0.3633620    3.6084877   -1.0659541 
C     1.6711478   -0.8080842   -1.4097119 
C     0.4306551   -1.6565426   -1.7715769 
H     2.3877534   -1.4174316   -0.8155838 
H     2.2152798   -0.5201406   -2.3389677 
C    -0.4784013   -0.9261146   -2.7646844 
O    -0.1336572   -0.8841380   -4.1110249 
O    -1.6056954   -0.2162036   -2.3460741 
H    -1.6971668   -0.2028948   -1.3420990 
N     0.8587597   -2.9646092   -2.2975388 
H    -0.1704416   -1.8392657   -0.8530619 
H     1.4481433   -2.8302901   -3.1554031 
H     1.4423246   -3.4679549   -1.5886458 
