24
Energy =
C     2.1326010    2.2504157   -0.4697699 
C     1.0498614    2.8514150    0.0920055 
C    -0.0048657    2.0993462    0.4808770 
C     2.1553122    0.9040477   -0.6361627 
C     1.0961399    0.1461647   -0.2393600 
C     0.0110257    0.7525774    0.3137796 
O     0.9930280    4.2369434    0.2780260 
H     1.8182768    4.7302660   -0.0458060 
H    -0.8494827    0.1662279    0.6257532 
H     3.0235209    0.4392939   -1.0989283 
H     2.9807267    2.8447021   -0.7920198 
H    -0.8628762    2.5920030    0.9245076 
C     1.1033833   -1.3503891   -0.4538877 
C     0.4630450   -1.7307407   -1.8085892 
H     0.5531141   -1.8431436    0.3786917 
H     2.1456305   -1.7434395   -0.4035666 
C     1.2819003   -1.2045664   -2.9918801 
O     2.4465329   -1.8643468   -3.3696475 
O     0.9425520   -0.0214371   -3.6512959 
H     0.1461702    0.4320030   -3.2302258 
N     0.2967908   -3.1917965   -1.8811064 
H    -0.5475288   -1.2683366   -1.8790928 
H     1.2278255   -3.6663601   -1.7861866 
H    -0.3105596   -3.5265257   -1.0963658 
