24
Energy =
C    -0.9495331    1.6618077   -0.5422832 
C    -0.2614910    2.8201524   -0.4448416 
C     1.0893852    2.8112667   -0.5855247 
C    -0.3024739    0.4924116   -0.7800405 
C     1.0570246    0.4720923   -0.9212092 
C     1.7428968    1.6460564   -0.8221366 
O    -0.9664351    4.0029992   -0.2002387 
H    -0.3800346    4.8282913   -0.1398632 
H     2.8250863    1.6605225   -0.9319864 
H    -0.8938158   -0.4131731   -0.8450224 
H    -2.0279286    1.6830870   -0.4256278 
H     1.6510004    3.7362243   -0.5091830 
C     1.8553576   -0.7972126   -1.1952960 
C     1.0631340   -2.1238725   -1.2764287 
H     2.6332489   -0.8990393   -0.4053848 
H     2.3997968   -0.6533686   -2.1566021 
C     1.9557002   -3.2663376   -1.7445740 
O     1.4991206   -4.1467103   -2.7144808 
O     3.2117631   -3.4653266   -1.1858197 
H     3.1063044   -3.9220366   -0.2925467 
N     0.4329377   -2.4056217    0.0278162 
H     0.2787873   -2.0282020   -2.0636039 
H    -0.1004687   -3.3071467   -0.0310742 
H     1.1702539   -2.5342098    0.7618936 
