24
Energy =
C     0.0202619    1.1235123    1.5517333 
C     0.2076435    2.3392089    0.9888243 
C     0.9002691    2.4499784   -0.1676848 
C     0.5170744    0.0107054    0.9536023 
C     1.2083687    0.1128560   -0.2164763 
C     1.4001865    1.3420717   -0.7720611 
O    -0.3035522    3.4771922    1.6047819 
H    -1.2413312    3.6746922    1.2733760 
H     1.9593229    1.4460732   -1.6986330 
H     0.3607268   -0.9580919    1.4212596 
H    -0.5247164    1.0513613    2.4869451 
H     1.0553874    3.4328631   -0.5995363 
C     1.7665200   -1.1220343   -0.8928597 
C     0.9830620   -1.5017873   -2.1786992 
H     1.7787075   -1.9933989   -0.1988565 
H     2.8339219   -0.9248598   -1.1446507 
C     1.7177059   -2.5640683   -3.0037223 
O     2.9172816   -3.1048870   -2.5502987 
O     1.2298997   -2.9768548   -4.2436746 
H     0.3199679   -2.5822515   -4.4294124 
N    -0.3867499   -1.9564874   -1.8542605 
H     0.9386601   -0.6032859   -2.8367320 
H    -0.6425921   -1.7892189   -0.8537728 
H    -1.0801272   -1.4155081   -2.4230082 
