24
Energy =
C     1.4994689    1.8078308   -2.4926332 
C     0.2175002    2.2167717   -2.6893121 
C    -0.7446125    1.8448988   -1.8152122 
C     1.8125113    1.0331532   -1.4227146 
C     0.8458070    0.6649438   -0.5379243 
C    -0.4382702    1.0694025   -0.7451187 
O    -0.1395543    3.0152404   -3.7801277 
H     0.6312771    3.2511338   -4.3953814 
H    -1.2268458    0.7703904   -0.0586119 
H     2.8379068    0.6993415   -1.2841593 
H     2.2741790    2.0956044   -3.1942983 
H    -1.7646767    2.1727276   -1.9852089 
C     1.1886244   -0.2212437    0.6426930 
C     1.2199857   -1.7483754    0.3245165 
H     0.4803978   -0.0046043    1.4763982 
H     2.1814678    0.0839494    1.0414877 
C     0.3490296   -2.5378344    1.2935836 
O     0.8898250   -3.5928656    2.0133436 
O    -0.9910424   -2.2142138    1.4693140 
H    -1.5203204   -2.5671715    0.6865601 
N     0.8832478   -2.0275200   -1.0859989 
H     2.2613879   -2.1046542    0.5051977 
H     1.0396027   -3.0455029   -1.2827631 
H    -0.1319209   -1.8361422   -1.2578665 
