24
Energy =
C     0.8089354    2.7318861   -1.1205985 
C    -0.1844699    2.8466004   -0.2088385 
C    -0.5270994    1.7854217    0.5569121 
C     1.4609970    1.5510060   -1.2743789 
C     1.1233579    0.4788236   -0.5044129 
C     0.1205764    0.6018292    0.4095849 
O    -0.8503140    4.0580512   -0.0551645 
H    -1.6486250    4.1094715   -0.6784354 
H    -0.1730631   -0.2534242    1.0157115 
H     2.2524106    1.4711075   -2.0146612 
H     1.0773111    3.5933621   -1.7228078 
H    -1.3239364    1.8915810    1.2852866 
C     1.8297856   -0.8506352   -0.6765201 
C     1.0518996   -1.8956110   -1.5380882 
H     2.0423112   -1.2524135    0.3411733 
H     2.8346443   -0.6897293   -1.1257202 
C     0.9714616   -3.2396714   -0.8306382 
O     0.4982812   -3.3349122    0.4742053 
O     1.3647689   -4.3943494   -1.4935821 
H     1.2277497   -5.1839852   -0.8750521 
N    -0.2892779   -1.4069577   -1.9192288 
H     1.6418907   -2.0941989   -2.4636961 
H    -0.1847861   -0.6559638   -2.6410175 
H    -0.8214978   -2.1800333   -2.3872118 
