24
Energy =
C    -0.5264246    2.1570903   -0.4014993 
C     0.4479730    2.9823546   -0.8687466 
C     1.6925320    2.4960025   -1.0783155 
C    -0.2491987    0.8531882   -0.1442431 
C     1.0039786    0.3634686   -0.3504956 
C     1.9745855    1.1926581   -0.8241407 
O     0.1973951    4.3302742   -1.1433150 
H    -0.7591291    4.6172480   -0.9661602 
H     2.9798995    0.8215112   -1.0045507 
H    -1.0370230    0.1914389    0.2077323 
H    -1.5296527    2.5364595   -0.2389966 
H     2.4590737    3.1648995   -1.4545174 
C     1.3034529   -1.0959270   -0.0650429 
C     0.6893695   -2.1156521   -1.0818018 
H     0.9637961   -1.3052412    0.9746082 
H     2.4034554   -1.2568352   -0.0259387 
C    -0.1641026   -3.1778880   -0.3853705 
O     0.1693145   -3.6265839    0.8863834 
O    -1.2212175   -3.7872324   -1.0474015 
H    -2.0434831   -3.2161281   -0.9226376 
N    -0.0525464   -1.4206939   -2.1563701 
H     1.5243118   -2.6994539   -1.5363955 
H     0.6244476   -0.8676873   -2.7343574 
H    -0.4530552   -2.1328334   -2.8161628 
