24
Energy =
C    -0.8669944    1.8898823   -0.7533168 
C    -0.0588711    2.9717130   -0.7382523 
C     1.2815578    2.8178805   -0.6636045 
C    -0.3398593    0.6267654   -0.7148751 
C     1.0344898    0.4738783   -0.5973719 
C     1.8282091    1.5790681   -0.5874064 
O    -0.6078329    4.2494053   -0.7916645 
H    -0.8095584    4.5952990    0.1398880 
H     2.9091992    1.4779646   -0.5272026 
H    -1.1228463   -0.3798939   -0.5554905 
H    -1.9399138    2.0310680   -0.8027014 
H     1.9140303    3.6994226   -0.6648801 
C     1.6896738   -0.9099680   -0.5599105 
C     0.7695971   -2.1248811   -0.8688821 
H     2.1717312   -1.0599849    0.4294112 
H     2.5010700   -0.9132799   -1.3239399 
C    -0.2785081   -1.7517594   -1.9087972 
O    -1.0048792   -0.5648862   -1.6923859 
O    -0.5301902   -2.5124999   -3.0381028 
H    -1.2184723   -2.0359549   -3.6057482 
N     1.6180247   -3.2538141   -1.2854104 
H     0.1992134   -2.3990948    0.0475957 
H     2.0682159   -3.6772138   -0.4413387 
H     1.0209698   -4.0016168   -1.7158709 
