24
Energy =
C     1.5357747    2.7201864   -0.3760381 
C     0.3662294    2.9908793   -1.0104654 
C    -0.4368792    1.9738131   -1.3901125 
C     1.8958549    1.4359636   -0.1275687 
C     1.0975319    0.4009569   -0.5187541 
C    -0.0840761    0.6865612   -1.1448007 
O    -0.0357788    4.3026900   -1.2812766 
H     0.6219187    5.0096246   -0.9704993 
H    -0.7634271   -0.0920595   -1.4661597 
H     2.8338550    1.2445532    0.3893631 
H     2.1851425    3.5307335   -0.0626658 
H    -1.3699050    2.2048865   -1.8927936 
C     1.5418169   -1.0190847   -0.1793819 
C     0.9163178   -2.1641338   -1.0228396 
H     1.3406045   -1.2120292    0.8980475 
H     2.6510180   -1.0592762   -0.2884055 
C     1.9139868   -3.2928145   -1.2322726 
O     2.0239934   -3.9013988   -2.4747086 
O     2.6807377   -3.7661493   -0.1763130 
H     2.1247884   -4.4374997    0.3333110 
N    -0.2913904   -2.6723952   -0.3435107 
H     0.6739518   -1.8032418   -2.0497299 
H    -0.9688477   -1.8985789   -0.1548961 
H    -0.7833028   -3.3460635   -0.9800333 
