24
Energy =
C    -1.2253157    1.4420644   -0.4205604 
C    -0.7125829    2.6575277   -0.1363376 
C     0.6297465    2.8455232   -0.1878358 
C    -0.4126256    0.4072301   -0.7551929 
C     0.9451598    0.5820627   -0.8108311 
C     1.4493821    1.8182779   -0.5217561 
O    -1.5868072    3.6943826    0.2063451 
H    -1.1260323    4.5774764    0.3974324 
H     2.5219596    1.9967033   -0.5563876 
H    -0.8973468   -0.5307732   -0.9691525 
H    -2.3009285    1.3075151   -0.3776796 
H     1.0523575    3.8187986    0.0378298 
C     1.9599404   -0.5058809   -1.1751963 
C     1.4615654   -1.9536538   -1.5419960 
H     2.6932872   -0.5424302   -0.3427588 
H     2.5552335   -0.1036599   -2.0269632 
C     1.7681004   -2.2919475   -2.9967835 
O     0.8449985   -1.9722784   -3.9845017 
O     3.0027913   -2.8064217   -3.3744655 
H     3.6597044   -2.0483870   -3.4678517 
N     2.0331181   -2.9801062   -0.6386604 
H     0.3642855   -2.0458283   -1.5061170 
H     2.6697771   -2.6044638    0.0995091 
H     1.2657623   -3.4904906   -0.1407919 
