24
Energy =
C    -1.1926514    1.8281627   -0.8539151 
C    -1.1272339    1.8432636    0.4970305 
C    -0.0627862    1.2988662    1.1291803 
C    -0.1952543    1.2601056   -1.5789688 
C     0.8785226    0.7051861   -0.9496622 
C     0.9385517    0.7294653    0.4115551 
O    -2.1524331    2.4254992    1.2356097 
H    -2.8805204    1.7469654    1.4309841 
H     1.7822084    0.2859979    0.9361459 
H    -0.2630664    1.2496172   -2.6632723 
H    -2.0487742    2.2767272   -1.3459225 
H    -0.0208651    1.3201594    2.2129006 
C     1.9874124    0.0552555   -1.7526632 
C     1.8179527   -1.4767913   -1.9086679 
H     2.9654945    0.2636819   -1.2603337 
H     2.0573419    0.5219045   -2.7595066 
C     1.8757404   -2.2012883   -0.5710831 
O     3.1057469   -2.4355344    0.0290834 
O     0.7185875   -2.5727042    0.1010460 
H     0.4479471   -3.4876476   -0.2268736 
N     0.6036883   -1.8077447   -2.6762725 
H     2.6965306   -1.8561560   -2.4782052 
H    -0.2483522   -1.5137480   -2.1418501 
H     0.6047521   -1.2896445   -3.5857576 
