24
Energy =
C    -0.3292228    2.3889547   -1.0785414 
C     0.8376815    2.8739406   -1.5612813 
C     1.9701820    2.1404181   -1.4600063 
C    -0.3645139    1.1700649   -0.4810623 
C     0.7740101    0.4322735   -0.3619209 
C     1.9421067    0.9205188   -0.8641468 
O     0.8695835    4.1209770   -2.1753513 
H     1.0517488    4.8520635   -1.4963743 
H     2.8578008    0.3384299   -0.7958027 
H    -1.3082803    0.7705773   -0.1130593 
H    -1.2325401    2.9806336   -1.1862451 
H     2.8951746    2.5358581   -1.8668115 
C     0.7286871   -0.9340513    0.2850265 
C     0.3740550   -2.0389474   -0.7263778 
H    -0.0238954   -0.9425655    1.1071261 
H     1.7096726   -1.1558354    0.7622488 
C     0.4955865   -3.4095696   -0.0680599 
O    -0.3434615   -3.7729014    0.9774376 
O     1.4921589   -4.2890146   -0.4710959 
H     2.3677141   -4.0081947   -0.0558660 
N    -0.9825309   -1.7833826   -1.2559022 
H     1.1186345   -2.0346777   -1.5582045 
H    -0.9071635   -1.1849094   -2.1123951 
H    -1.4188509   -2.6818302   -1.5798592 
