24
Energy =
C    -1.1797236    1.8218070   -0.9133072 
C    -1.1036875    1.8905993    0.4424453 
C    -0.0570018    1.3220461    1.0825561 
C    -0.2096722    1.1875034   -1.6198140 
C     0.8467242    0.6172348   -0.9767181 
C     0.9164157    0.6879300    0.3813162 
O    -2.0848544    2.5392205    1.1994627 
H    -2.8433161    2.9266795    0.6492744 
H     1.7453290    0.2309522    0.9169086 
H    -0.2867772    1.1352972   -2.7023459 
H    -2.0174589    2.2722808   -1.4342408 
H    -0.0106850    1.3781723    2.1645901 
C     1.9251382   -0.1028330   -1.7608223 
C     1.6762345   -1.6269625   -1.8892780 
H     2.9109316    0.0622047   -1.2676123 
H     2.0233186    0.3416571   -2.7752967 
C     1.6908953   -2.3282180   -0.5380322 
O     2.9080436   -2.6136031    0.0708693 
O     0.5154243   -2.6112372    0.1476821 
H     0.7518677   -3.0706527    1.0160926 
N     0.4515606   -1.9077887   -2.6597290 
H     2.5358996   -2.0658264   -2.4438696 
H    -0.3907620   -1.6235328   -2.1047325 
H     0.4512389   -1.3623404   -3.5521024 
