24
Energy =
C    -0.0678642    1.4962922    1.1819154 
C    -0.2019420    2.5846741    0.3893047 
C     0.3580293    2.5987495   -0.8418991 
C     0.6407613    0.4214420    0.7508965 
C     1.2240440    0.4359553   -0.4803199 
C     1.0686486    1.5284295   -1.2793072 
O    -0.9264399    3.6851037    0.8356573 
H    -0.3219071    4.3426616    1.3151814 
H     1.4903019    1.5367587   -2.2814276 
H     0.7267839   -0.4522409    1.3918968 
H    -0.5417463    1.4896404    2.1577995 
H     0.2196129    3.4664003   -1.4778353 
C     1.9957220   -0.7698040   -0.9803556 
C     1.1543535   -1.7662870   -1.8517728 
H     2.4095849   -1.3244364   -0.1085686 
H     2.8978548   -0.4028683   -1.5130094 
C    -0.3260541   -1.4131461   -1.9685265 
O    -1.2591917   -2.0748911   -1.1761794 
O    -0.7607993   -0.3955232   -2.8118329 
H    -1.7655756   -0.3210120   -2.7312381 
N     1.7501585   -1.9736615   -3.1926423 
H     1.1499786   -2.7414475   -1.3097059 
H     2.6325269   -1.4390988   -3.3564697 
H     1.9715675   -2.9872914   -3.3343745 
