24
Energy =
C     1.3487746    2.5186992   -1.2317042 
C     0.4701629    2.8917825   -0.2634887 
C    -0.0352546    1.9593563    0.5755344 
C     1.7195216    1.2186836   -1.3523394 
C     1.2169035    0.2801211   -0.5027797 
C     0.3298154    0.6574190    0.4581952 
O     0.0696267    4.2229430   -0.1094507 
H     0.4776585    4.8578629   -0.7871318 
H    -0.0940878   -0.0777179    1.1374112 
H     2.4144423    0.9336942   -2.1401656 
H     1.7531321    3.2579969   -1.9146667 
H    -0.7394062    2.2698308    1.3397607 
C     1.6054698   -1.1751956   -0.6499583 
C     0.6296367   -1.9347110   -1.5803301 
H     1.6191388   -1.6550870    0.3535789 
H     2.6450059   -1.2602546   -1.0430675 
C     0.6942203   -1.4361738   -3.0158555 
O     1.9195465   -1.2105994   -3.6330432 
O    -0.4721480   -1.2472434   -3.7421442 
H    -0.7684115   -2.1439047   -4.1001138 
N     0.8997344   -3.3814741   -1.5112151 
H    -0.4188119   -1.7451973   -1.2498998 
H     1.8920593   -3.5730043   -1.7942005 
H     0.7796782   -3.7229321   -0.5282595 
