24
Energy =
C     1.5216206    2.5624595   -1.1142359 
C     0.2492350    2.9358624   -0.8483961 
C    -0.6319326    2.0205102   -0.3642114 
C     1.9236424    1.2842013   -0.8980716 
C     1.0466341    0.3652097   -0.4086175 
C    -0.2356955    0.7410240   -0.1463887 
O    -0.1252141    4.2639371   -1.0788069 
H    -1.0996490    4.4593486   -0.8774440 
H    -0.9527125    0.0195291    0.2365719 
H     2.9497655    1.0077135   -1.1222600 
H     2.2133473    3.3006566   -1.5054390 
H    -1.6554017    2.3095585   -0.1518171 
C     1.4801823   -1.0674601   -0.1829104 
C     0.9879688   -2.0080468   -1.3109814 
H     1.0700507   -1.4138394    0.7919082 
H     2.5882175   -1.1373940   -0.0944129 
C     1.5378802   -1.6096724   -2.6753597 
O     0.7068338   -0.9894058   -3.5999929 
O     2.8789569   -1.7929398   -2.9936746 
H     3.4159019   -1.0393363   -2.5978103 
N     1.3285023   -3.4126783   -0.9991404 
H    -0.1198736   -1.9051768   -1.3992990 
H     1.8158063   -3.5250931   -0.0792034 
H     0.4577888   -3.9934851   -0.9623203 
