24
Energy =
C     1.5723860    2.4686395   -0.6756315 
C     0.3795914    2.8612889   -0.1542091 
C    -0.4890324    1.9307686    0.3015814 
C     1.8905469    1.1507889   -0.7346415 
C     1.0192176    0.2130641   -0.2700742 
C    -0.1773938    0.6111682    0.2432416 
O     0.0208846    4.2108144   -0.0750244 
H     0.7171501    4.8441547   -0.4536687 
H    -0.8920163   -0.1218161    0.6079878 
H     2.8451350    0.8538883   -1.1646093 
H     2.2734262    3.2065067   -1.0508325 
H    -1.4386066    2.2584756    0.7100864 
C     1.3590762   -1.2595976   -0.3562530 
C     0.7795436   -1.9118260   -1.6280826 
H     0.9694323   -1.7811284    0.5448572 
H     2.4633754   -1.4127595   -0.3364028 
C     1.4243669   -1.3524450   -2.8919143 
O     2.7972571   -1.1464405   -2.9638479 
O     0.6439048   -1.0854793   -4.0089839 
H     0.4486650   -1.9532835   -4.4854081 
N     0.9618804   -3.3702453   -1.5262788 
H    -0.3077246   -1.6731899   -1.7027584 
H     0.3509926   -3.7449453   -0.7623198 
H     0.6300880   -3.8288113   -2.4083257 
