24
Energy =
C     1.7920743    1.6709865   -2.8204788 
C     1.0028034    2.6777865   -2.3802727 
C     0.3879313    2.5804732   -1.1795673 
C     1.9621715    0.5570565   -2.0637647 
C     1.3423333    0.4486763   -0.8548861 
C     0.5543873    1.4707622   -0.4167632 
O     0.8301060    3.8173192   -3.1593737 
H     0.0384677    3.7065669   -3.7840110 
H     0.0454804    1.4010597    0.5413844 
H     2.5943155   -0.2458735   -2.4329815 
H     2.2858984    1.7660166   -3.7816876 
H    -0.2386723    3.3964767   -0.8363973 
C     1.5142980   -0.8008691   -0.0142215 
C     0.4007291   -1.8542608   -0.2444398 
H     1.5359957   -0.5220124    1.0640032 
H     2.5049718   -1.2633881   -0.2196275 
C    -0.9694944   -1.3544497    0.1887593 
O    -1.3915018   -1.5565901    1.4983898 
O    -1.7754562   -0.6209546   -0.6770788 
H    -2.6435125   -0.3970088   -0.2091321 
N     0.4076184   -2.3426522   -1.6362356 
H     0.6027924   -2.7202537    0.4271065 
H     0.0599769   -1.5895917   -2.2785439 
H     1.3797037   -2.5941439   -1.9303684 
