24
Energy =
C    -0.8334080    1.7828172    0.3960560 
C    -0.0291608    2.8061945    0.0287197 
C     1.2242465    2.5448115   -0.4298906 
C    -0.3983637    0.5007710    0.3093058 
C     0.8562778    0.2334106   -0.1473578 
C     1.6651640    1.2641954   -0.5183264 
O    -0.5147307    4.1135879    0.1306253 
H     0.1472729    4.8255674   -0.1586076 
H     2.6683869    1.0698983   -0.8897961 
H    -1.0618075   -0.3062025    0.6088815 
H    -1.8308646    2.0033183    0.7607582 
H     1.8759685    3.3594753   -0.7273957 
C     1.3399671   -1.1981381   -0.2598859 
C     1.0858888   -1.8960700   -1.6385677 
H     0.8889865   -1.7921394    0.5704966 
H     2.4310903   -1.2263012   -0.0405650 
C     0.3181684   -3.2045978   -1.4782636 
O     0.9903115   -4.4060110   -1.6582874 
O    -1.0141696   -3.2383897   -1.0671746 
H    -1.4051488   -2.3140472   -0.9866619 
N     0.4567610   -1.0126119   -2.6409467 
H     2.0727368   -2.2214393   -2.0469849 
H    -0.4528101   -0.6266040   -2.2968876 
H     1.0881617   -0.2065912   -2.8586815 
