24
Energy =
C     0.3044346    2.3497584   -1.4403235 
C    -1.0154842    2.1833988   -1.1941768 
C    -1.4502508    1.0736565   -0.5542218 
C     1.1970769    1.4105095   -1.0362789 
C     0.7679549    0.2956458   -0.3808921 
C    -0.5641958    0.1286062   -0.1493358 
O    -1.9279393    3.1471388   -1.6108325 
H    -2.0840076    3.8340023   -0.8811764 
H    -0.9281841   -0.7624698    0.3559064 
H     2.2546890    1.5537061   -1.2507921 
H     0.6384442    3.2361734   -1.9696883 
H    -2.5129744    0.9464332   -0.3780169 
C     1.7550558   -0.7703990    0.0428499 
C     1.8762777   -1.8914278   -1.0057097 
H     1.4389932   -1.2041961    1.0165367 
H     2.7629515   -0.3279151    0.2208310 
C     2.4191759   -1.3573387   -2.3280873 
O     3.6106088   -0.6428244   -2.3704688 
O     1.7053166   -1.5502169   -3.5034366 
H     0.9719991   -0.8581226   -3.5565872 
N     2.7370083   -2.9498559   -0.4524138 
H     0.8648011   -2.3122202   -1.2143673 
H     2.2122255   -3.4667484    0.2915867 
H     2.9458840   -3.6553814   -1.2005777 
