24
Energy =
C    -1.0271891    1.4074543    0.4842703 
C    -0.7262915    2.5092992   -0.2400872 
C     0.4204503    2.5406242   -0.9704717 
C    -0.1936805    0.3364254    0.4865301 
C     0.9572587    0.3645915   -0.2400765 
C     1.2578752    1.4727187   -0.9718007 
O    -1.6116132    3.5919186   -0.2176483 
H    -1.3149226    4.3794743   -0.7837561 
H     2.1694698    1.5115247   -1.5636009 
H    -0.4572745   -0.5406766    1.0719940 
H    -1.9454592    1.3942659    1.0614381 
H     0.6696434    3.4190184   -1.5561664 
C     1.8838752   -0.8306872   -0.2559077 
C     1.7360043   -1.6694454   -1.5496362 
H     1.7124451   -1.4778673    0.6343522 
H     2.9339351   -0.4693961   -0.1615161 
C     2.8372565   -2.7106126   -1.6540482 
O     3.1115051   -3.5547929   -0.5845217 
O     3.5794020   -2.8293974   -2.8209952 
H     3.0605525   -3.3999093   -3.4738967 
N     0.4081577   -2.3035756   -1.6151720 
H     1.8660309   -1.0057290   -2.4356974 
H     0.2276565   -2.8541514   -0.7415139 
H    -0.3337457   -1.5682868   -1.6890692 
