24
Energy =
C     1.2559371    2.6802318   -1.0125765 
C     0.5443711    2.9150125    0.1125114 
C     0.1967839    1.8751706    0.9157063 
C     1.6211040    1.4159254   -1.3444089 
C     1.2721270    0.3670461   -0.5458391 
C     0.5601181    0.6088143    0.5894434 
O     0.1855522    4.2314383    0.4194325 
H    -0.3517228    4.3249274    1.2746917 
H     0.2819147   -0.1997633    1.2517952 
H     2.1893261    1.2509568   -2.2564783 
H     1.5284938    3.5189235   -1.6445748 
H    -0.3713267    2.0538587    1.8223882 
C     1.6798453   -1.0455158   -0.9316054 
C     0.6335597   -1.9115919   -1.7192868 
H     2.0106136   -1.5862612   -0.0163749 
H     2.6062221   -0.9843738   -1.5469560 
C    -0.0247103   -2.9978214   -0.8726772 
O     0.2251855   -4.3333058   -1.1644526 
O    -0.8622485   -2.6993740    0.1956984 
H    -0.3200214   -2.3114960    0.9460288 
N    -0.3851367   -1.1372496   -2.4662126 
H     1.2276575   -2.5025751   -2.4576450 
H    -0.3395081   -0.1044663   -2.3393433 
H    -0.2950597   -1.3198516   -3.4933149 
