24
Energy =
C    -0.3758032    1.9758566    0.2261095 
C     0.4280447    2.9794239   -0.1911947 
C     1.6274405    2.6860672   -0.7595513 
C     0.0030914    0.6817427    0.0744155 
C     1.1918713    0.3790288   -0.5183822 
C     2.0120870    1.3938453   -0.9130448 
O     0.0021067    4.3007156   -0.0165647 
H     0.6565460    4.9949870   -0.3608443 
H     2.9837266    1.1819201   -1.3526713 
H    -0.6500349   -0.1043620    0.4425809 
H    -1.3240139    2.2231454    0.6905924 
H     2.2849939    3.4845501   -1.0861095 
C     1.6364503   -1.0660963   -0.6550635 
C     0.6570436   -1.9682145   -1.4621197 
H     1.7413179   -1.4612315    0.3803274 
H     2.6572693   -1.1548002   -1.0919583 
C     0.7555975   -1.8672368   -3.0002676 
O     0.0937652   -2.8207733   -3.7659802 
O     1.4008962   -0.8349398   -3.6836550 
H     1.7369115   -0.1130226   -3.0783296 
N     0.8815411   -3.3551804   -1.0122888 
H    -0.3959943   -1.6892572   -1.2337216 
H     0.5646894   -3.4553643   -0.0187633 
H     0.2761086   -4.0140802   -1.5603708 
