24
Energy =
C     0.4436653    2.5677791   -1.5756682 
C    -0.3721734    2.7592705   -0.5139343 
C    -0.3983409    1.8548508    0.4917629 
C     1.2346849    1.4659050   -1.6375953 
C     1.2148033    0.5509283   -0.6281673 
C     0.3882974    0.7497238    0.4363278 
O    -1.1799563    3.8899080   -0.4535747 
H    -2.0817837    3.7081797   -0.8807232 
H     0.3519160    0.0286065    1.2491819 
H     1.8776656    1.3144605   -2.5035698 
H     0.4553235    3.3032259   -2.3734014 
H    -1.0531303    2.0252985    1.3397801 
C     2.0761216   -0.6918189   -0.7003217 
C     1.3093605   -1.8935147   -1.2869494 
H     2.4429777   -0.9448759    0.3182084 
H     2.9886921   -0.5117722   -1.3140224 
C     0.9546146   -1.6894243   -2.7567971 
O    -0.1648079   -2.3200120   -3.2856859 
O     1.7454060   -0.9070705   -3.5945417 
H     1.3794227   -0.9781794   -4.5362038 
N     2.1264768   -3.1045004   -1.0902915 
H     0.3376257   -2.0088448   -0.7519938 
H     2.1191118   -3.3635788   -0.0760193 
H     1.6800828   -3.9087554   -1.5958233 
