24
Energy =
C    -0.1669045    1.5987755    0.9252054 
C    -0.1640848    2.6320721    0.0521970 
C     0.5095394    2.5291014   -1.1164685 
C     0.5155334    0.4613222    0.6373538 
C     1.2083385    0.3549703   -0.5308451 
C     1.1933485    1.3941162   -1.4121900 
O    -0.8637918    3.7968800    0.3507725 
H    -0.2706433    4.4553373    0.8436023 
H     1.7234837    1.3230027   -2.3584579 
H     0.4937677   -0.3676549    1.3402126 
H    -0.7270599    1.6873268    1.8498039 
H     0.4889020    3.3596495   -1.8139808 
C     1.9503417   -0.9202934   -0.8668963 
C     1.0335018   -1.9361107   -1.5757342 
H     2.3680970   -1.3770068    0.0592024 
H     2.8259284   -0.6814156   -1.5117030 
C     1.8442592   -3.0780435   -2.1667321 
O     2.5090822   -3.9698602   -1.3359765 
O     1.9670363   -3.2109084   -3.5426104 
H     2.6484124   -2.5483354   -3.8824528 
N     0.0108482   -2.4145901   -0.6265331 
H     0.5318944   -1.4352395   -2.4375811 
H    -0.6779153   -3.0136041   -1.1422942 
H     0.4597516   -3.0411888    0.0859880 
