24
Energy =
C     1.8791985    1.8461610    0.6108743 
C     2.2414497    2.5449707   -0.4981084 
C     2.2307704    1.9356721   -1.7050834 
C     1.5134499    0.5431279    0.5072778 
C     1.5146061   -0.0746810   -0.7058431 
C     1.8679036    0.6323537   -1.8144354 
O     2.6276277    3.8870444   -0.4260607 
H     2.5914131    4.2770341    0.5093937 
H     1.8497272    0.1613610   -2.7954770 
H     1.2190186    0.0002387    1.4019203 
H     1.8785943    2.3287865    1.5822773 
H     2.5109784    2.5087450   -2.5823529 
C     1.0861227   -1.5210250   -0.8265402 
C    -0.4368984   -1.6485411   -1.0646009 
H     1.3701051   -2.0682411    0.0992473 
H     1.6361851   -2.0162603   -1.6594803 
C    -0.8534378   -1.0343160   -2.3892777 
O    -1.8013182   -0.0204348   -2.4256733 
O    -0.2653114   -1.4513392   -3.5774268 
H    -0.7158761   -0.9586296   -4.3385235 
N    -0.8351631   -3.0656514   -0.9911547 
H    -0.9905056   -1.0736838   -0.2850591 
H    -0.3674733   -3.6022903   -1.7627506 
H    -0.5348714   -3.4814409   -0.0789745 
