24
Energy =
C     1.6288562    2.5592952   -0.7410483 
C     0.3946304    2.8996764   -0.3046737 
C    -0.4482669    1.9334113    0.1477805 
C     2.0307807    1.2627648   -0.7269629 
C     1.1948103    0.2927374   -0.2640260 
C    -0.0509247    0.6356405    0.1648253 
O     0.0175709    4.2459841   -0.3346520 
H    -0.9234579    4.4190861    0.0016020 
H    -0.7382730   -0.1317510    0.5121101 
H     3.0235844    1.0095641   -1.0906305 
H     2.2892883    3.3389824   -1.1053783 
H    -1.4432188    2.1952714    0.4913917 
C     1.6298258   -1.1571946   -0.2657363 
C     1.1192496   -1.8937752   -1.5221330 
H     1.2566831   -1.6583478    0.6542422 
H     2.7419682   -1.2135898   -0.2169424 
C     1.8907958   -3.1871632   -1.7829216 
O     2.5458561   -3.3484914   -2.9960452 
O     1.9635044   -4.2117802   -0.8392631 
H     1.4592473   -3.9885659    0.0037471 
N    -0.3362852   -2.1103753   -1.4052758 
H     1.3229310   -1.2498752   -2.4127797 
H    -0.7074885   -2.4390363   -2.3300310 
H    -0.5405121   -2.8754321   -0.7192737 
