24
Energy =
C    -0.4638247    2.1862104   -0.6257672 
C     0.5231410    2.9597008   -1.1515578 
C     1.7586859    2.4382996   -1.3301064 
C    -0.2074970    0.8991311   -0.2785258 
C     1.0366597    0.3746910   -0.4537165 
C     2.0196631    1.1509411   -0.9865946 
O     0.2948480    4.2891807   -1.5188876 
H    -0.6563207    4.6044112   -1.3614513 
H     3.0176040    0.7502527   -1.1425649 
H    -1.0049170    0.2691798    0.1156331 
H    -1.4605025    2.5922368   -0.4894689 
H     2.5350523    3.0661437   -1.7541301 
C     1.3078407   -1.0644362   -0.0616430 
C     0.6580664   -2.1349368   -0.9948421 
H     0.9564938   -1.1877470    0.9889240 
H     2.4038319   -1.2487936   -0.0138002 
C    -0.0610118   -3.2008601   -0.1755132 
O    -1.0916521   -2.8512649    0.6891351 
O     0.3374385   -4.5290970   -0.2521209 
H     1.1607395   -4.6609017    0.3162336 
N    -0.2433833   -1.5164868   -1.9891370 
H     1.4723188   -2.6742686   -1.5347674 
H     0.3315687   -1.0222691   -2.7125755 
H    -0.7652254   -2.2667544   -2.5053167 
