24
Energy =
C    -0.1405022    1.0800285    1.2732927 
C    -1.2682696    1.5428539    0.6711672 
C    -1.3259417    1.6094722   -0.6778381 
C     0.9217972    0.6896854    0.5244278 
C     0.8657402    0.7572573   -0.8347912 
C    -0.2676737    1.2187624   -1.4321923 
O    -2.3797842    1.9566593    1.4124086 
H    -2.2657190    1.8561411    2.4153192 
H    -0.3371074    1.2743953   -2.5150474 
H     1.8131098    0.3153433    1.0229604 
H    -0.0862558    1.0175966    2.3548077 
H    -2.2331580    1.9772516   -1.1442505 
C     2.0451328    0.3075569   -1.6732532 
C     2.0658862   -1.2194408   -1.9335820 
H     2.9921714    0.6002558   -1.1628773 
H     2.0517642    0.8451684   -2.6465745 
C     2.2796014   -2.0143542   -0.6533413 
O     1.2230541   -2.6375689    0.0036155 
O     3.5433920   -2.0436352   -0.0755151 
H     3.5044595   -2.6190499    0.7566328 
N     0.8726736   -1.6528949   -2.6836385 
H     2.9621316   -1.4471652   -2.5534169 
H     0.0205150   -1.5740894   -2.0780272 
H     0.7298331   -1.0427470   -3.5213036 
