24
Energy =
C     2.0912361    2.4188261   -1.1020511 
C     0.8516899    2.9725564   -1.1990385 
C    -0.2357248    2.2503653   -0.8475603 
C     2.2451687    1.1517578   -0.6410029 
C     1.1571597    0.4237612   -0.2795924 
C    -0.1047161    0.9545357   -0.4227349 
O     0.6706470    4.2861347   -1.6458464 
H     1.5305479    4.7561018   -1.9057493 
H    -1.0874415    0.2708834    0.0443211 
H     3.2428714    0.7286946   -0.5625482 
H     2.9657318    2.9944434   -1.3850487 
H    -1.2165488    2.7043265   -0.9176359 
C     1.2732433   -0.9989456    0.2321109 
C     0.5278026   -2.0071692   -0.6812197 
H     0.8430376   -1.0396126    1.2563653 
H     2.3390718   -1.3067903    0.3188490 
C    -0.8649541   -1.5293025   -1.1047495 
O    -1.1992620   -0.1629268   -1.0226811 
O    -1.7491038   -2.4020359   -1.7165417 
H    -2.2445980   -2.9283831   -1.0124668 
N     1.3805678   -2.2949502   -1.8462359 
H     0.3711924   -2.9501627   -0.1096449 
H     0.9049534   -3.0185046   -2.4384714 
H     1.4302242   -1.4351340   -2.4465656 
