24
Energy =
C     1.5033704    2.6389035   -1.1856873 
C     0.5986953    2.9894857   -0.2321973 
C     0.0615979    2.0364613    0.5626722 
C     1.8673005    1.3397712   -1.3372317 
C     1.3327912    0.3812229   -0.5315397 
C     0.4238262    0.7367202    0.4173629 
O     0.2024869    4.3179749   -0.0500517 
H     0.6454275    4.9717077   -0.6863547 
H    -0.0323095   -0.0282752    1.0446262 
H     2.5868626    1.0753594   -2.1077560 
H     1.9357877    3.3965679   -1.8303671 
H    -0.6670801    2.3281777    1.3113705 
C     1.7246479   -1.0740421   -0.6903255 
C     0.6407707   -1.9784069   -1.3607588 
H     1.9890425   -1.4552233    0.3227167 
H     2.6686308   -1.1555261   -1.2724125 
C     0.3995346   -3.2507388   -0.5549919 
O     0.1809659   -4.4556027   -1.2116130 
O     0.3698354   -3.2250540    0.8357958 
H     0.1501268   -4.1559092    1.1676557 
N    -0.6189376   -1.2431070   -1.5959128 
H     1.0406652   -2.3273705   -2.3420602 
H    -0.4685930   -0.5487233   -2.3655934 
H    -1.3464459   -1.9085535   -1.9549679 
