24
Energy =
C     1.0244114    2.2575886    0.5065850 
C     0.5453706    2.9757845   -0.5350410 
C     0.4693512    2.4170227   -1.7646919 
C     1.4247951    0.9736571    0.3226079 
C     1.3554028    0.4050940   -0.9131381 
C     0.8673292    1.1335147   -1.9563445 
O     0.1352609    4.2912741   -0.3428679 
H    -0.8500553    4.3282834   -0.1057943 
H     0.7937164    0.6948663   -2.9482601 
H     1.7947662    0.4011033    1.1696613 
H     1.0834620    2.7190692    1.4864177 
H     0.0892016    3.0066310   -2.5918541 
C     1.7798960   -1.0331627   -1.1173213 
C     0.6089947   -2.0038876   -0.8666147 
H     2.6260313   -1.2736619   -0.4361379 
H     2.1696108   -1.1594845   -2.1536963 
C     0.8986360   -3.3912808   -1.4408965 
O     0.0984487   -3.8818427   -2.4637199 
O     1.9552823   -4.1751111   -0.9787086 
H     2.4725163   -3.7084083   -0.2496172 
N     0.3072856   -2.0214092    0.5820993 
H    -0.2786261   -1.6336143   -1.4363925 
H    -0.7220464   -1.8847596    0.7241082 
H     0.5395951   -2.9442795    1.0225488 
