24
Energy =
C     0.1391989    1.4395442    1.2763166 
C     0.2109088    2.5912452    0.5563654 
C     0.7865208    2.5798397   -0.6673534 
C     0.6487869    0.2869476    0.7723785 
C     1.2423432    0.2780529   -0.4532539 
C     1.2995522    1.4311697   -1.1747676 
O    -0.2974340    3.7972273    1.0497174 
H    -0.7447066    3.7159211    1.9564376 
H     1.7342690    1.4321509   -2.1710594 
H     0.5689976   -0.6292845    1.3519964 
H    -0.3312818    1.4362000    2.2537048 
H     0.8215045    3.5000702   -1.2397516 
C     1.7902729   -1.0122392   -1.0322332 
C     0.8037819   -1.7868948   -1.9577654 
H     2.1104874   -1.6822436   -0.2036621 
H     2.7282151   -0.7782989   -1.5841405 
C    -0.6062798   -1.1987156   -2.0120007 
O    -1.6382673   -1.8128471   -1.3149850 
O    -0.8779869   -0.0483904   -2.7420288 
H    -1.0853568   -0.3190196   -3.6909636 
N     1.3989094   -1.9122625   -3.3027574 
H     0.6670415   -2.8086254   -1.5301034 
H     2.2689979   -2.4930049   -3.2398896 
H     0.7474788   -2.4542540   -3.9200360 
