24
Energy =
C     1.5456064    2.6699388   -0.0637347 
C     0.2286425    2.9345228   -0.2026071 
C    -0.6305291    1.9235707   -0.4929716 
C     2.0127092    1.4053365   -0.2157111 
C     1.1627333    0.3833258   -0.5214780 
C    -0.1696061    0.6559884   -0.6457718 
O    -0.2149451    4.2508865   -0.0388163 
H    -1.2153292    4.3679710   -0.1580699 
H    -0.8875659   -0.1175749   -0.8700649 
H     3.0767010    1.2194542   -0.0885579 
H     2.2214771    3.4842675    0.1746282 
H    -1.6908911    2.1257983   -0.6008040 
C     1.7430536   -1.0204480   -0.6472187 
C     0.9085587   -2.0608874   -1.4554401 
H     1.9667249   -1.4126630    0.3701334 
H     2.7374044   -0.9206940   -1.1417401 
C     1.8122518   -3.1284815   -2.0532820 
O     2.6095309   -3.9170493   -1.2323962 
O     1.9175369   -3.2652430   -3.4323599 
H     2.5274655   -2.5457078   -3.7906609 
N    -0.1283664   -2.6979335   -0.6151376 
H     0.4379306   -1.5636029   -2.3357432 
H     0.0671868   -2.6182346    0.4105881 
H    -1.0787387   -2.3104200   -0.8112701 
