24
Energy =
C    -0.3039949    2.1478882   -0.0265443 
C     0.0597291    2.8048956   -1.1519207 
C     0.9979508    2.2767434   -1.9707268 
C     0.2797587    0.9641280    0.2912163 
C     1.2374293    0.4344462   -0.5195718 
C     1.5875280    1.0942721   -1.6590528 
O    -0.5384823    4.0194306   -1.4725600 
H    -0.0168302    4.7925235   -1.0747755 
H     2.3315509    0.6733025   -2.3326334 
H    -0.0274491    0.4433021    1.1948027 
H    -1.0704658    2.5746904    0.6114565 
H     1.2639699    2.8045953   -2.8802117 
C     1.8734107   -0.8956853   -0.1783973 
C     1.0487291   -2.0874449   -0.7223550 
H     1.9686396   -0.9825699    0.9268977 
H     2.9084615   -0.9495906   -0.5887939 
C     0.9643656   -2.0652730   -2.2441774 
O    -0.2696729   -2.1576794   -2.8773533 
O     2.1195246   -1.9558738   -3.0129914 
H     1.8664235   -2.0002275   -3.9920333 
N     1.5813496   -3.3696947   -0.1978646 
H    -0.0052163   -1.9840775   -0.3733802 
H     1.9118710   -3.9902652   -0.9768474 
H     2.4114819   -3.2388785    0.4269866 
