24
Energy =
C     1.3939149    2.5705353   -0.7678949 
C     0.1539725    2.8174868   -0.2863283 
C    -0.5946574    1.8047146    0.2068760 
C     1.8954652    1.3090347   -0.7466528 
C     1.1539444    0.2863847   -0.2356487 
C    -0.0998614    0.5407754    0.2322180 
O    -0.3565425    4.1114247   -0.3094772 
H    -0.1316247    4.6010860    0.5494945 
H    -0.7172478   -0.2688817    0.6131465 
H     2.8900430    1.1249059   -1.1460613 
H     1.9759864    3.3896129   -1.1768559 
H    -1.5952145    2.0143467    0.5694375 
C     1.7008175   -1.1246750   -0.2305774 
C     1.2472120   -1.9110092   -1.4751952 
H     1.3770714   -1.6613860    0.6889190 
H     2.8137533   -1.0938125   -0.1874115 
C     2.0710670   -3.1805570   -1.6356361 
O     3.0401771   -3.2524820   -2.6255983 
O     1.9274008   -4.2420315   -0.7510198 
H     1.1019230   -4.7671171   -0.9977556 
N    -0.2020390   -2.1756192   -1.3853952 
H     1.4549910   -1.2964012   -2.3838885 
H    -0.5289923   -2.6158469   -2.2790175 
H    -0.3976973   -2.8580485   -0.6144517 
