24
Energy =
C    -0.9922942    1.5895030    0.3063246 
C    -1.0131832    2.4097366   -0.7694374 
C    -0.0530614    2.3082209   -1.7167919 
C    -0.0020905    0.6711232    0.4452617 
C     0.9784799    0.5751494   -0.4954860 
C     0.9421103    1.3947269   -1.5837275 
O    -2.0285485    3.3509523   -0.9063805 
H    -1.7664081    4.2281469   -0.4706375 
H     1.7019113    1.3141305   -2.3595312 
H    -0.0033969    0.0131361    1.3107644 
H    -1.7790844    1.6704004    1.0488095 
H    -0.0947960    2.9571117   -2.5850976 
C     2.0713438   -0.4625595   -0.3550938 
C     1.6920483   -1.7913500   -1.0374507 
H     2.2738074   -0.6540010    0.7227218 
H     3.0254410   -0.0766183   -0.7798343 
C     1.5903450   -1.6542928   -2.5521146 
O     0.5141574   -2.2134627   -3.2252723 
O     2.5817709   -1.0059270   -3.2806295 
H     3.3652923   -1.6307885   -3.4001275 
N     2.6639672   -2.8215789   -0.6278561 
H     0.6752922   -2.0940712   -0.6899490 
H     2.3794361   -3.7459233   -1.0344960 
H     3.6093456   -2.5952034   -1.0205133 
