24
Energy =
C     0.0668874    1.4251757    1.1063159 
C     0.3606870    2.6020984    0.4921763 
C     1.1130056    2.5997973   -0.6310741 
C     0.5274866    0.2553617    0.5953359 
C     1.2895883    0.2512070   -0.5336725 
C     1.5792431    1.4331935   -1.1448226 
O    -0.0962463    3.8251360    0.9935502 
H    -0.6622008    3.7426893    1.8309166 
H     2.1743765    1.4541016   -2.0553576 
H     0.2813876   -0.6775518    1.0963982 
H    -0.5378775    1.4171903    2.0066680 
H     1.3327163    3.5449903   -1.1157638 
C     1.7944288   -1.0614195   -1.0995931 
C     0.6938696   -1.8265798   -1.8908061 
H     2.1740049   -1.6705500   -0.2511328 
H     2.6840151   -0.9012400   -1.7511346 
C     0.6203182   -1.3487543   -3.3552782 
O     0.9693115   -0.0408965   -3.6681156 
O     0.1311568   -2.1441977   -4.3927441 
H    -0.0151386   -3.1004450   -4.1231720 
N     0.9465574   -3.2797339   -1.7803095 
H    -0.3051062   -1.5976394   -1.4512349 
H     1.1010278   -3.5440272   -0.7789006 
H     0.0747509   -3.8019795   -2.0337140 
