24
Energy =
C     0.4684590    2.3373558    0.3589596 
C     0.0389369    2.9724218   -0.7557582 
C     0.1400951    2.3671106   -1.9616091 
C     0.9965943    1.0899591    0.2718728 
C     1.1051565    0.4760890   -0.9395346 
C     0.6670446    1.1194381   -2.0567249 
O    -0.5038528    4.2502176   -0.6624249 
H    -1.5064646    4.2019336   -0.5186057 
H     0.7302633    0.6375764   -3.0287011 
H     1.3258153    0.5812990    1.1755067 
H     0.3845749    2.8358348    1.3185095 
H    -0.2054959    2.8897586   -2.8467868 
C     1.6730675   -0.9248746   -1.0355958 
C     0.6117439   -2.0674637   -0.9547767 
H     2.4492074   -1.0488748   -0.2449552 
H     2.2367722   -1.0200148   -1.9901344 
C     0.9705952   -3.0899842    0.1103041 
O     1.0851103   -2.7135272    1.4435918 
O     1.1853732   -4.4139552   -0.2421319 
H     1.4082825   -4.9373498    0.5954851 
N    -0.7556044   -1.5380964   -0.7719753 
H     0.6465622   -2.6351919   -1.9144172 
H    -1.4421312   -2.3277917   -0.8312704 
H    -0.8454442   -1.1512438    0.1988168 
