24
Energy =
C     0.8065629    2.6359489   -1.1825784 
C     0.1025060    2.8475864   -0.0468667 
C    -0.0441738    1.8499014    0.8551989 
C     1.3646086    1.4225405   -1.4216620 
C     1.2250483    0.4138279   -0.5166319 
C     0.5096070    0.6327244    0.6220495 
O    -0.4684213    4.0927477    0.1955589 
H    -1.4087800    4.1315161   -0.1838463 
H     0.3663247   -0.1659413    1.3453438 
H     1.9011549    1.2522764   -2.3516603 
H     0.9103661    3.4415636   -1.9011314 
H    -0.6138073    2.0330477    1.7600399 
C     1.8126237   -0.9541823   -0.8031364 
C     0.9106749   -1.8833922   -1.6712177 
H     2.0423747   -1.4664517    0.1574007 
H     2.8025647   -0.8154120   -1.2928483 
C    -0.4782553   -1.3174678   -1.9697650 
O    -1.5824727   -1.7943525   -1.2760969 
O    -0.6597668   -0.3168756   -2.9165561 
H    -0.7860294   -0.7548633   -3.8161127 
N     1.6344487   -2.2438987   -2.9060976 
H     0.7160423   -2.8132835   -1.0855917 
H     2.4852170   -2.8017194   -2.6545498 
H     1.0392520   -2.8881555   -3.4803332 
