24
Energy =
C    -0.5293361    2.0058850   -0.2498383 
C     0.3293687    2.9436823   -0.7088579 
C     1.5989900    2.5898146   -1.0493656 
C    -0.1424473    0.6957890   -0.1516390 
C     1.1577370    0.3594512   -0.4516632 
C     2.0140049    1.3042902   -0.9183410 
O    -0.1126187    4.2671410   -0.8102522 
H     0.5813344    4.9083818   -1.1785049 
H     3.0338351    1.0409989   -1.1851668 
H    -0.8706530   -0.2123038    0.3945164 
H    -1.5343798    2.2995664    0.0269394 
H     2.2901911    3.3396637   -1.4189549 
C     1.5647379   -1.0914025   -0.2923917 
C     0.7016727   -2.0427836   -1.1731871 
H     1.4322708   -1.3717305    0.7759158 
H     2.6443448   -1.2341981   -0.5153864 
C    -0.7996096   -1.7251021   -1.1237221 
O    -1.2321334   -0.4612996   -0.6729147 
O    -1.7480417   -2.6105622   -1.6190162 
H    -1.3103666   -3.3971913   -2.0770755 
N     1.1866136   -2.0187890   -2.5617597 
H     0.8084860   -3.0783599   -0.7773180 
H     1.0638273   -1.0527918   -2.9532343 
H     2.2062319   -2.2505002   -2.5958251 
