24
Energy =
C     0.9436815    2.6437891   -1.4869494 
C     0.2081010    2.9385887   -0.3823710 
C     0.0356925    1.9999536    0.5754766 
C     1.5058103    1.4154507   -1.6241264 
C     1.3379050    0.4705988   -0.6585800 
C     0.5928292    0.7695546    0.4416008 
O    -0.3814599    4.1944784   -0.2075684 
H    -0.2219163    4.8358687   -0.9768696 
H     0.4379012    0.0277796    1.2209634 
H     2.0702092    1.1822615   -2.5243306 
H     1.0769099    3.3863622   -2.2664329 
H    -0.5572903    2.2468506    1.4494806 
C     1.9543986   -0.9066598   -0.8041040 
C     0.9613047   -1.9417833   -1.4057951 
H     2.2869948   -1.2329727    0.2057131 
H     2.8767413   -0.8677117   -1.4263746 
C     0.8535098   -1.8289070   -2.9257842 
O     0.9203129   -2.9574903   -3.7365535 
O     0.6285204   -0.5955384   -3.5288214 
H     0.5201382   -0.7391935   -4.5258000 
N     1.3424599   -3.3171824   -1.0084576 
H    -0.0663600   -1.7187068   -1.0356153 
H     2.1712100   -3.3642381   -0.3718471 
H     0.5419668   -3.7889248   -0.5259107 
