24
Energy =
C    -0.0144352    2.2252781   -1.5227868 
C    -1.1128875    2.0472369   -0.7414172 
C    -1.1495182    1.0190851    0.1365759 
C     1.0408070    1.3775921   -1.4191634 
C     1.0073653    0.3467304   -0.5292256 
C    -0.0984604    0.1669214    0.2429623 
O    -2.2167573    2.9012112   -0.8232168 
H    -2.1166168    3.6447199   -1.5060372 
H    -0.1502024   -0.6583244    0.9491013 
H     1.9094391    1.5200564   -2.0624707 
H     0.0196874    3.0427503   -2.2354054 
H    -2.0340456    0.8860959    0.7504586 
C     2.1693010   -0.6184952   -0.4341833 
C     1.9900522   -1.8361555   -1.3722573 
H     2.2719141   -0.9739761    0.6156845 
H     3.1238361   -0.0994178   -0.6824743 
C     1.8411916   -1.4011965   -2.8259049 
O     2.8373864   -0.6507777   -3.4365487 
O     0.6831107   -1.6882799   -3.5324858 
H    -0.0315826   -1.0248520   -3.2734076 
N     3.0940348   -2.8085137   -1.1769957 
H     1.0340592   -2.3488401   -1.1163963 
H     3.6442976   -2.9402424   -2.0625688 
H     3.7890366   -2.4924634   -0.4605341 
