24
Energy =
C     0.6364157    1.9767524    1.0176401 
C    -0.3965940    1.3864232    1.6611892 
C    -0.6912654    0.0888626    1.4195033 
C     1.3838856    1.2681819    0.1332667 
C     1.0974949   -0.0419888   -0.1115199 
C     0.0532392   -0.6271223    0.5397028 
O    -1.1605874    2.1174825    2.5655919 
H    -0.7643574    2.0614719    3.4973516 
H    -0.1972402   -1.6695794    0.3627192 
H     2.2077156    1.7581756   -0.3783641 
H     0.8536049    3.0213897    1.2132451 
H    -1.5295600   -0.3705491    1.9319876 
C     1.9206698   -0.8312537   -1.1108698 
C     1.2790445   -0.9038619   -2.5246635 
H     2.0762877   -1.8630993   -0.7170359 
H     2.9392969   -0.3930361   -1.1947902 
C     0.0346623   -1.7964937   -2.5650985 
O     0.0519098   -2.9994069   -1.8695935 
O    -1.0773177   -1.5132461   -3.3588485 
H    -0.9472369   -0.6875018   -3.9227998 
N     1.0445501    0.4514954   -3.0614608 
H     1.9932588   -1.4308581   -3.1979436 
H     0.3151136    0.9416506   -2.4887218 
H     1.9230467    1.0180705   -3.0010603 
