24
Energy =
C    -0.0963291    1.2073009    1.4162534 
C    -0.5272207    2.2413801    0.6598206 
C    -0.1089017    2.3504356   -0.6288171 
C     0.7494637    0.2812187    0.8981729 
C     1.1664449    0.3773035   -0.3958317 
C     0.7351180    1.4258687   -1.1525058 
O    -1.3935822    3.1789010    1.2314088 
H    -1.6858675    3.9120334    0.5946810 
H     1.0610409    1.5299938   -2.1831782 
H     1.0829438   -0.5400643    1.5270898 
H    -0.4388241    1.1292597    2.4424381 
H    -0.4477304    3.1769999   -1.2439493 
C     2.1207243   -0.6520259   -0.9817840 
C     1.4378489   -1.7026057   -1.8944249 
H     2.6711291   -1.1758800   -0.1683770 
H     2.8975837   -0.1188759   -1.5721689 
C     0.5816916   -2.7242813   -1.1290969 
O     0.2940649   -2.5540502    0.2198387 
O     0.1191465   -3.8829285   -1.7561993 
H     0.4355515   -3.9505965   -2.7113899 
N     0.6829926   -1.0192730   -2.9605422 
H     2.2548241   -2.2975203   -2.3630395 
H     1.3606788   -0.5807305   -3.6274421 
H     0.1331422   -1.7131727   -3.5199980 
