24
Energy =
C    -0.6651087    0.5587405    1.1140120 
C    -1.1339074    1.7178200    0.5789724 
C    -0.5106742    2.2596078   -0.4920138 
C     0.4231363   -0.0492803    0.5774131 
C     1.0562163    0.4992848   -0.4963054 
C     0.5788497    1.6572263   -1.0308374 
O    -2.2511840    2.3705186    1.1096705 
H    -2.6691883    1.8969933    1.9031160 
H     1.0608410    2.1059731   -1.8963200 
H     0.7839018   -0.9774533    1.0130269 
H    -1.1604591    0.1149661    1.9709491 
H    -0.8971728    3.1802472   -0.9155730 
C     2.2584428   -0.1920502   -1.1054877 
C     1.8441132   -1.3295509   -2.0734507 
H     2.8859527   -0.6068795   -0.2859810 
H     2.8988098    0.5412149   -1.6484597 
C     1.0719704   -0.8135386   -3.2802779 
O     1.3846513    0.4073553   -3.8674617 
O     0.0852837   -1.5999347   -3.8581085 
H     0.5375933   -2.3052063   -4.4207794 
N     3.0283977   -2.0965581   -2.5157812 
H     1.1375205   -2.0047737   -1.5353520 
H     3.9008301   -1.8239351   -2.0040546 
H     2.8791697   -3.1168870   -2.3328066 
