24
Energy =
C     0.9177909    1.9662226   -2.7540483 
C     0.5865114    2.9259482   -1.8598187 
C     0.5917885    2.6482513   -0.5358653 
C     1.2715698    0.7274152   -2.3261007 
C     1.2987734    0.4456632   -0.9931624 
C     0.9479673    1.4133740   -0.0998148 
O     0.2334169    4.1967193   -2.3031363 
H     1.0495562    4.7937816   -2.3747034 
H     0.9313699    1.1979304    0.9658767 
H     1.5253682   -0.0351252   -3.0569036 
H     0.8880694    2.1973206   -3.8135206 
H     0.2982713    3.4187095    0.1690528 
C     1.6768201   -0.9406615   -0.5075237 
C     0.4650336   -1.8553150   -0.1398743 
H     2.3286166   -0.8329947    0.3885465 
H     2.3306982   -1.4316415   -1.2617075 
C    -0.9143600   -1.2046763   -0.2941202 
O    -1.5128934   -0.6375911    0.8241205 
O    -1.5536042   -1.0761538   -1.5272443 
H    -1.0354373   -1.5206409   -2.2645142 
N     0.5597945   -3.1465351   -0.8485233 
H     0.5224169   -2.0654192    0.9551269 
H     0.6980953   -3.0036111   -1.8762592 
H     1.3928918   -3.6752759   -0.4963999 
