24
Energy =
C     1.2443711    2.5071226   -0.6335487 
C    -0.0034021    2.7401360   -0.1460097 
C    -0.7631211    1.7016862    0.2695575 
C     1.7257796    1.2400376   -0.6983477 
C     0.9644298    0.1941382   -0.2729956 
C    -0.2880030    0.4320704    0.2048644 
O    -0.5294774    4.0332333   -0.0615697 
H     0.0930179    4.7539829   -0.4112634 
H    -0.9166867   -0.3903754    0.5357700 
H     2.7212822    1.0692879   -1.1037144 
H     1.8587678    3.3321240   -0.9778699 
H    -1.7584376    1.9021949    0.6504695 
C     1.4878776   -1.2232284   -0.3692466 
C     1.0835688   -1.8981141   -1.7025768 
H     1.0939386   -1.8184063    0.4844386 
H     2.5983497   -1.2316313   -0.2710473 
C     1.6916135   -1.1791739   -2.9014533 
O     3.0652744   -0.9928391   -2.9873161 
O     0.8825655   -0.7409137   -3.9394976 
H     0.6726065   -1.5250188   -4.5396552 
N     1.4122783   -3.3456325   -1.6747784 
H    -0.0191463   -1.7959059   -1.8307889 
H     2.0679397   -3.6037607   -2.4529737 
H     1.9097502   -3.6274502   -0.7968696 
