24
Energy =
C     1.7068181    2.4379931   -1.3003236 
C     1.4455145    2.9759732   -0.0868770 
C     1.0443935    2.1829615    0.9329762 
C     1.5755327    1.1009512   -1.4962766 
C     1.1792157    0.2952921   -0.4723109 
C     0.9101600    0.8450841    0.7448710 
O     1.5790113    4.3466255    0.1097659 
H     2.5159048    4.5737811    0.4246760 
H     0.5828692    0.2208098    1.5723762 
H     1.7882019    0.6815703   -2.4768524 
H     2.0168116    3.0877750   -2.1119711 
H     0.8271583    2.6310157    1.8967053 
C     1.0147995   -1.1908430   -0.6968371 
C    -0.2956462   -1.5318700   -1.4486216 
H     1.0512733   -1.7481210    0.2673883 
H     1.8863911   -1.5611048   -1.2839891 
C    -0.3277219   -2.9939254   -1.8535783 
O     0.0414722   -3.9834672   -0.9508340 
O    -0.7683230   -3.3587633   -3.1174174 
H    -1.7784797   -3.3600527   -3.1153131 
N    -1.4741896   -1.1907335   -0.6319477 
H    -0.3317268   -0.9643697   -2.4079242 
H    -1.4154867   -1.6711442    0.2984122 
H    -1.5057278   -0.1583352   -0.4598298 
