24
Energy =
C     0.3138051    1.8066851    1.0298949 
C     0.4833858    2.8776271    0.2230723 
C     1.0025029    2.7159068   -1.0141234 
C     0.6575498    0.5658288    0.6000764 
C     1.1826806    0.3891853   -0.6463799 
C     1.3486709    1.4787001   -1.4522867 
O     0.1304986    4.1472130    0.6685742 
H    -0.8345012    4.3556091    0.4361859 
H     1.7584983    1.3705933   -2.4535649 
H     0.5015100   -0.2696118    1.2669455 
H    -0.0968901    1.9526625    2.0235185 
H     1.1408498    3.5861619   -1.6473460 
C     1.5671261   -0.9935699   -1.1570010 
C     0.3966442   -1.9679446   -1.5460022 
H     2.2640064   -1.4680220   -0.4340127 
H     2.2060337   -0.8679256   -2.0608219 
C     0.1794410   -3.1801917   -0.6235204 
O    -0.3899392   -4.3196370   -1.1746551 
O     0.4723427   -3.2013771    0.7404713 
H     0.9348204   -2.3779290    1.0688930 
N    -0.8716838   -1.2893121   -1.9178851 
H     0.7428605   -2.4794081   -2.4751611 
H    -1.6892471   -1.6948209   -1.3995347 
H    -0.8924155   -0.2609418   -1.7521226 
