24
Energy =
C     1.3515048    2.4664244   -1.4987172 
C     0.8569407    3.0325442   -0.3746438 
C     0.5434170    2.2472597    0.6906876 
C     1.5420178    1.1244207   -1.5665232 
C     1.2329655    0.3347810   -0.5021986 
C     0.7288496    0.9037247    0.6274885 
O     0.6826309    4.4204773   -0.3388191 
H     0.2829828    4.7637063    0.5270643 
H     0.4704080    0.2917761    1.4870743 
H     1.9233457    0.6827097   -2.4858396 
H     1.5858144    3.1011939   -2.3461603 
H     0.1428868    2.6933736    1.5942367 
C     1.4364852   -1.1643240   -0.5912836 
C     0.4037523   -1.9190086   -1.4823237 
H     1.4407837   -1.6144020    0.4255443 
H     2.4674739   -1.3373204   -0.9775884 
C    -0.7227901   -1.0351861   -2.0455563 
O    -0.7033169   -0.6344155   -3.3762120 
O    -1.7886036   -0.6253216   -1.2435182 
H    -1.6549521   -0.8885730   -0.2809113 
N     1.1419369   -2.6351138   -2.5416993 
H    -0.1202650   -2.6716187   -0.8490370 
H     1.6194473   -3.4718714   -2.1311954 
H     0.4760434   -2.9978431   -3.2677695 
