24
Energy =
C     0.0454171    1.9597431    0.8332238 
C    -0.1636760    2.7336972   -0.2564161 
C     0.2927424    2.3365383   -1.4661594 
C     0.7203272    0.7874914    0.7184721 
C     1.1871143    0.3824690   -0.4961066 
C     0.9686549    1.1658697   -1.5894092 
O    -0.8547091    3.9352401   -0.1341264 
H    -0.2157411    4.6980880    0.0609056 
H     1.3306913    0.8600455   -2.5680434 
H     0.8793501    0.1786368    1.6045055 
H    -0.3359689    2.2854989    1.7949873 
H     0.1080143    2.9617615   -2.3330867 
C     1.9353891   -0.9257864   -0.6376870 
C     1.0792943   -2.0224710   -1.3188247 
H     2.2907675   -1.2996858    0.3495135 
H     2.8546546   -0.7400296   -1.2390569 
C     1.9596927   -3.1967279   -1.7191879 
O     2.3595381   -3.3486254   -3.0406038 
O     2.4288302   -4.0868822   -0.7614593 
H     3.0062116   -4.7800663   -1.2210429 
N    -0.0692940   -2.4256325   -0.4686259 
H     0.6782585   -1.6287230   -2.2809212 
H    -0.0219176   -3.4463508   -0.2280742 
H    -0.0793002   -1.9261878    0.4495631 
