24
Energy =
C     0.5059307    2.4465233    0.0376159 
C    -0.5381414    2.6165453   -0.8057260 
C    -0.7849153    1.7011208   -1.7705539 
C     1.3041728    1.3543891   -0.0763976 
C     1.0609352    0.4273687   -1.0448223 
C     0.0086026    0.6065136   -1.8912517 
O    -1.3539345    3.7371347   -0.6856671 
H    -2.1294586    3.5508482   -0.0592935 
H    -0.2034281   -0.1219636   -2.6695900 
H     2.1362994    1.2292732    0.6119580 
H     0.6971434    3.1933433    0.8008875 
H    -1.6200097    1.8552932   -2.4453577 
C     1.9377897   -0.7988843   -1.1707311 
C     1.2692914   -2.0625610   -0.5746958 
H     2.9241703   -0.6326250   -0.6795997 
H     2.1667783   -0.9615691   -2.2480288 
C     2.0578841   -3.3125700   -0.9336736 
O     3.3996117   -3.4164776   -0.5881777 
O     1.4731902   -4.3262657   -1.6818865 
H     1.4552218   -4.0522695   -2.6518528 
N     1.1252543   -1.9359661    0.8856193 
H     0.2582253   -2.1977531   -1.0226354 
H     2.0599939   -1.7592332    1.3270130 
H     0.4968550   -1.1325513    1.1192552 
