24
Energy =
C     0.2989837    2.2264408    0.4999827 
C    -0.0504355    2.8891744   -0.6262136 
C     0.2597128    2.3607997   -1.8405169 
C     0.9620461    1.0451745    0.4249160 
C     1.2858818    0.5178967   -0.7878757 
C     0.9215358    1.1787316   -1.9212443 
O    -0.7251055    4.1087414   -0.5082370 
H    -0.9821431    4.5267439   -1.3958272 
H     1.1502505    0.7608544   -2.8979973 
H     1.2165526    0.5172804    1.3403188 
H     0.0333517    2.6493852    1.4627333 
H    -0.0252741    2.8799156   -2.7493139 
C     1.9980556   -0.8173356   -0.8777570 
C     1.0475453   -2.0558006   -0.9310042 
H     2.6805807   -0.9265796   -0.0051298 
H     2.6832223   -0.8000522   -1.7539071 
C    -0.4542532   -1.7273599   -0.8914093 
O    -1.0373992   -1.4210074    0.3325326 
O    -1.2452901   -1.6554345   -2.0373122 
H    -0.7560275   -2.0293650   -2.8325377 
N     1.4189975   -2.9327938   -2.0616598 
H     1.1970329   -2.6325487    0.0130127 
H     1.5521593   -2.3796892   -2.9419165 
H     2.3387291   -3.3925237   -1.8543950 
