24
Energy =
C    -0.4950530    1.9694718   -1.8600746 
C    -0.6553994    2.6054475   -0.6773807 
C     0.0902486    2.2274484    0.3951367 
C     0.4018888    0.9581848   -1.9814257 
C     1.1490333    0.5738802   -0.9102614 
C     0.9886952    1.2167900    0.2795090 
O    -1.5909517    3.6415967   -0.5918820 
H    -1.6481292    4.0717248    0.3248373 
H     1.5790051    0.9293799    1.1458881 
H     0.5183782    0.4615891   -2.9414743 
H    -1.0940787    2.2820567   -2.7086560 
H    -0.0295219    2.7330681    1.3473084 
C     2.1429862   -0.5593693   -1.0461488 
C     1.4476390   -1.9436595   -1.1218030 
H     2.8747120   -0.5586441   -0.2058013 
H     2.7501369   -0.3891265   -1.9652103 
C     2.4224579   -3.0155322   -1.5769692 
O     2.0783415   -3.8728200   -2.6147066 
O     3.6578358   -3.1605798   -0.9582326 
H     3.5390254   -3.7614051   -0.1551246 
N     0.8448254   -2.3172925    0.1762961 
H     0.6634506   -1.9102158   -1.9152779 
H     0.9108807   -1.5506432    0.8850703 
H    -0.1765046   -2.5103987    0.0459057 
