24
Energy =
C    -0.3489634    2.3829682   -0.7605048 
C     0.3904552    2.8309690   -1.8007550 
C     1.4743751    2.1334831   -2.2122960 
C    -0.0091844    1.2306579   -0.1299261 
C     1.0839693    0.5244905   -0.5352521 
C     1.8208110    0.9793869   -1.5867213 
O     0.0390549    4.0126977   -2.4444466 
H    -0.6005006    3.8273887   -3.2096639 
H     2.6836637    0.4186570   -1.9367458 
H    -0.6192790    0.8707026    0.6955488 
H    -1.2138036    2.9532392   -0.4392768 
H     2.0584308    2.5066828   -3.0468569 
C     1.4492682   -0.7767823    0.1506892 
C     0.8176613   -2.0501412   -0.4957653 
H     1.1820566   -0.6977854    1.2293527 
H     2.5567497   -0.8835295    0.1534026 
C     0.0941188   -2.9155936    0.5411040 
O    -0.7583808   -2.3156059    1.4615562 
O     0.2292390   -4.3040677    0.5613064 
H     0.8111037   -4.6459978   -0.1886063 
N    -0.0624356   -1.7082337   -1.6295355 
H     1.6620976   -2.6568644   -0.8932533 
H    -0.3307438   -2.5855870   -2.1362113 
H    -0.9560039   -1.2980168   -1.2649271 
