24
Energy =
C     1.0774432    2.7179154   -0.7251682 
C     0.1931581    2.8411102    0.2917181 
C    -0.2026461    1.7465925    0.9814528 
C     1.5660107    1.4961969   -1.0604508 
C     1.1750351    0.3908883   -0.3676464 
C     0.2812467    0.5216489    0.6524441 
O    -0.3057634    4.0944271    0.6315014 
H    -1.1552916    4.2948376    0.1152437 
H    -0.0514365   -0.3546280    1.2058446 
H     2.2679454    1.4083736   -1.8861080 
H     1.3899253    3.6052862   -1.2654671 
H    -0.9073065    1.8616463    1.7981643 
C     1.6994274   -0.9762219   -0.7476473 
C     0.9076307   -1.7788536   -1.8458166 
H     1.7967679   -1.5767374    0.1862957 
H     2.7550737   -0.8645220   -1.0833586 
C     0.6271444   -3.2185313   -1.3935213 
O     0.1740821   -3.4583546   -0.1011407 
O     0.7444574   -4.2973534   -2.2695982 
H     0.9609565   -4.0032460   -3.2104500 
N    -0.3131150   -1.1152918   -2.3772919 
H     1.6058436   -1.8757102   -2.7064939 
H    -1.1617647   -1.7206595   -2.2571686 
H    -0.5612764   -0.2092994   -1.9286631 
