24
Energy =
C    -0.2263185    1.3121303    1.3223139 
C    -0.0732738    2.4752515    0.6487928 
C     0.6882928    2.5153357   -0.4682818 
C     0.3879763    0.1837908    0.8837804 
C     1.1579932    0.2160513   -0.2402354 
C     1.3058255    1.3914432   -0.9133222 
O    -0.7062331    3.6289574    1.1003224 
H    -0.1098797    4.1359127    1.7452773 
H     1.9176298    1.4386695   -1.8107752 
H     0.2560984   -0.7420838    1.4379093 
H    -0.8468901    1.2931507    2.2118545 
H     0.7951106    3.4531852   -1.0027880 
C     1.8426171   -1.0382147   -0.7421723 
C     1.1814914   -1.6028730   -2.0289496 
H     1.8596992   -1.8309919    0.0402822 
H     2.9103914   -0.7915688   -0.9432450 
C     2.0407553   -2.6897971   -2.6837421 
O     3.2371345   -3.0923451   -2.0973457 
O     1.6717813   -3.2635992   -3.9004567 
H     0.7542384   -2.9568136   -4.1873358 
N    -0.1771617   -2.1173692   -1.7496316 
H     1.1292328   -0.7825396   -2.7817439 
H    -0.5166179   -1.8650298   -0.7927951 
H    -0.8595953   -1.6860920   -2.4170843 
