24
Energy =
C     0.0012876    2.0883087    0.5454569 
C    -0.3178026    2.7478931   -0.5916423 
C     0.1159894    2.2860113   -1.7868215 
C     0.7522090    0.9587307    0.4908023 
C     1.1946915    0.4876476   -0.7091628 
C     0.8666353    1.1566125   -1.8500341 
O    -1.0872879    3.9052283   -0.5314532 
H    -2.0744195    3.6846222   -0.6042296 
H     1.2065361    0.7941774   -2.8170078 
H     0.9907542    0.4308898    1.4111500 
H    -0.3487622    2.4734016    1.4973515 
H    -0.1404372    2.8307609   -2.6891794 
C     2.0190469   -0.7823166   -0.7795791 
C     1.1674828   -2.0254367   -1.1436054 
H     2.5294474   -0.9640179    0.1941068 
H     2.8088937   -0.6147161   -1.5415914 
C     1.9754791   -3.3396805   -1.2136317 
O     1.2876983   -4.5464088   -1.1516711 
O     3.3542833   -3.4026836   -1.4384511 
H     3.7951115   -2.5145028   -1.5909635 
N     0.0562696   -2.1294093   -0.1727063 
H     0.7540247   -1.8845888   -2.1688110 
H    -0.6681914   -1.4072256   -0.3965797 
H    -0.4419040   -3.0464140   -0.2849647 
