24
Energy =
C    -0.6159012    2.0241762   -0.4889722 
C     0.3543282    2.9351684   -0.7269531 
C     1.6531334    2.5540850   -0.7627969 
C    -0.2961522    0.7020338   -0.3260897 
C     1.0302272    0.3315118   -0.3161346 
C     1.9959691    1.2570619   -0.5552242 
O     0.0185815    4.2719323   -0.9187910 
H    -0.1273789    4.4622781   -1.9044218 
H     3.0428358    0.9685256   -0.5823469 
H    -1.1514615   -0.1931279    0.0181830 
H    -1.6493764    2.3442313   -0.4408914 
H     2.4164924    3.3017701   -0.9484579 
C     1.3529853   -1.1321804   -0.0854941 
C     0.7205124   -2.0411507   -1.1727971 
H     0.9593694   -1.4259485    0.9117324 
H     2.4519607   -1.2951328   -0.0561327 
C    -0.7312603   -1.6754917   -1.4882963 
O    -1.2610306   -0.4213331   -1.1130012 
O    -1.5172845   -2.5374940   -2.2326762 
H    -2.4072420   -2.0894302   -2.4109683 
N     1.5622081   -1.9752419   -2.3799665 
H     0.6823031   -3.0902734   -0.7978866 
H     2.4290654   -2.5398553   -2.2255611 
H     1.0546543   -2.4332621   -3.1765491 
