24
Energy =
C    -0.5641447    0.1448894    1.1643030 
C     0.3544042   -0.5170744    1.9031318 
C     1.6227964   -0.6541822    1.4336101 
C    -0.2247352    0.6798168   -0.0366562 
C     1.0472284    0.5524197   -0.5076314 
C     1.9670996   -0.1255481    0.2317227 
O    -0.0330075   -1.0462761    3.1383850 
H     0.7006750   -1.5461674    3.6291144 
H     2.9834038   -0.2513696   -0.1341061 
H    -0.9828265    1.1903084   -0.6331998 
H    -1.5762589    0.2304291    1.5468846 
H     2.3620099   -1.1901367    2.0180761 
C     1.4237185    1.1283745   -1.8568690 
C     0.9462066    0.2333674   -3.0197093 
H     2.5288514    1.2462624   -1.9318803 
H     1.0103533    2.1552102   -1.9591511 
C    -0.5735239    0.1288769   -3.0913696 
O    -1.1697328   -1.1163960   -2.9679295 
O    -1.3923819    1.2545000   -3.1832258 
H    -0.8695749    2.0867586   -3.4071943 
N     1.5390092    0.7271888   -4.2740236 
H     1.3079563   -0.8079934   -2.8353265 
H     1.2399215    0.1015188   -5.0615758 
H     1.1656625    1.6784719   -4.4997944 
