24
Energy =
C    -0.0417515    0.5845857    1.6648773 
C    -0.2764276    1.8023386    1.0985998 
C     0.2066909    2.0690482   -0.1381299 
C     0.6733356   -0.3560524    0.9933420 
C     1.1601066   -0.0753218   -0.2434152 
C     0.9267901    1.1305164   -0.8052621 
O    -1.0072343    2.7921869    1.7662633 
H    -1.3512571    2.5068046    2.6761394 
H     2.1237179    1.5436015   -3.7053008 
H     0.8479941   -1.3266582    1.4489457 
H    -0.4283394    0.3604895    2.6527177 
H     0.0037559    3.0299233   -0.5939198 
C     1.9446384   -1.0612766   -1.0630937 
C     1.1776894   -1.4943153   -2.3321966 
H     2.1935167   -1.9671542   -0.4668194 
H     2.9181982   -0.6051557   -1.3450861 
C     0.4751949   -0.3850715   -3.1388012 
O    -0.3976022   -0.7707011   -4.1478975 
O     0.6335767    0.9973589   -2.8954953 
H     1.8145979    1.4571620   -2.2757103 
N     2.0917230   -2.2985947   -3.1615548 
H     0.3355008   -2.1432103   -1.9922555 
H     1.5352825   -2.7813370   -3.9096027 
H     2.7635307   -1.6685856   -3.6611009 
