24
Energy =
C     0.1475789    1.2154925    1.4355399 
C     0.0158055    2.3894437    0.7615044 
C     0.4681730    2.4849330   -0.5093472 
C     0.7324310    0.1467672    0.8371897 
C     1.1949460    0.2446329   -0.4400912 
C     1.0573475    1.4213366   -1.1106418 
O    -0.5782403    3.5100230    1.3506141 
H    -0.9087905    3.3545798    2.2968660 
H     1.4006500    1.5098049   -2.1385150 
H     0.8259769   -0.7854968    1.3885068 
H    -0.2154092    1.1289651    2.4542188 
H     0.3464330    3.4221099   -1.0413230 
C     1.8373281   -0.9475898   -1.1217272 
C     0.9137411   -1.6959531   -2.1462214 
H     2.1774906   -1.6785384   -0.3538964 
H     2.7841921   -0.5973668   -1.5843892 
C    -0.5315534   -1.1940271   -2.1925773 
O    -0.8804396   -0.1077072   -2.9867573 
O    -1.5011141   -1.7807635   -1.3901761 
H    -1.4006073   -1.4363122   -0.4475631 
N     1.5378173   -1.7842768   -3.4921581 
H     0.7992006   -2.7428928   -1.7811091 
H     0.9349399   -1.3381642   -4.2270113 
H     2.4648908   -1.3076133   -3.5618486 
