24
Energy =
C    -0.5650133    1.9593469   -0.0629647 
C     0.3597570    2.7694788    0.4937509 
C     1.6690284    2.4165949    0.4535499 
C    -0.1987349    0.7969199   -0.6611330 
C     1.1199274    0.4286551   -0.7100456 
C     2.0446379    1.2577998   -0.1419911 
O    -0.0626466    3.9567778    1.1007245 
H     0.6908126    4.5120741    1.4915951 
H     3.1013978    0.9984552   -0.1591747 
H    -0.9935587    0.2028810   -1.0820688 
H    -1.6081355    2.2549791   -0.0235391 
H     2.4204960    3.0603715    0.8982881 
C     1.6501677   -0.8548624   -1.3537691 
C     0.6619599   -1.8565747   -2.0388950 
H     2.2186055   -1.4034152   -0.5693327 
H     2.4379225   -0.5537789   -2.0816361 
C     0.9412244   -2.0064699   -3.5326011 
O    -0.1164048   -2.1792067   -4.4181085 
O     2.2395817   -2.0065502   -4.0305280 
H     2.1997803   -2.1681949   -5.0285975 
N     0.7528116   -3.1565439   -1.3507514 
H    -0.3889389   -1.5268278   -2.0009133 
H     0.3504447   -3.0575321   -0.3888691 
H     0.1466678   -3.8545000   -1.8469481 
