24
Energy =
C     1.6838508    2.3037382   -1.8269400 
C     0.8906526    3.0312662   -1.0083825 
C     0.2703059    2.4256111    0.0389201 
C     1.8669501    0.9771428   -1.6068032 
C     1.2538376    0.3652202   -0.5560338 
C     0.4495762    1.0992878    0.2632015 
O     0.7311328    4.3963843   -1.2651832 
H     0.1060499    4.8668110   -0.6197102 
H    -0.0600903    0.6270434    1.0997638 
H     2.4974228    0.4059278   -2.2828077 
H     2.1660622    2.7967771   -2.6642483 
H    -0.3730287    2.9988882    0.6978964 
C     1.4476149   -1.1202049   -0.3143555 
C     0.5195047   -1.9912840   -1.1879486 
H     1.2729649   -1.3610007    0.7584719 
H     2.5052757   -1.3932781   -0.5192834 
C    -0.9586411   -1.7118294   -0.9111073 
O    -1.9026518   -1.7606954   -1.9319427 
O    -1.4006555   -1.5186882    0.3935126 
H    -2.4066376   -1.4065816    0.3757810 
N     0.8932769   -1.8159588   -2.6055483 
H     0.6687409   -3.0558159   -0.8966433 
H     1.7901050   -2.3239114   -2.7870335 
H     0.1747107   -2.2735428   -3.2187898 
