24
Energy =
C     0.4471127    2.3448970    0.4387344 
C     0.2542909    3.0223112   -0.7246873 
C     0.5755216    2.4362442   -1.9005590 
C     0.9661428    1.0913866    0.4199103 
C     1.3045610    0.5061766   -0.7625180 
C     1.0955195    1.1831859   -1.9252149 
O    -0.2702120    4.3187886   -0.7402863 
H    -0.5216491    4.6733074    0.1762254 
H     1.3275898    0.7208470   -2.8809666 
H     1.0959638    0.5539340    1.3556975 
H     0.1804277    2.8007246    1.3861997 
H     0.4018337    2.9803023   -2.8225995 
C     1.8545863   -0.9071887   -0.7879025 
C     0.7728616   -2.0249554   -0.8522314 
H     2.4884650   -1.0681737    0.1121640 
H     2.5605326   -1.0082202   -1.6429442 
C    -0.6691909   -1.5168473   -0.8427775 
O    -1.2733483   -1.0814905   -2.0153283 
O    -1.3705636   -1.4292420    0.3523910 
H    -1.7221639   -2.3435698    0.5958249 
N     1.0541060   -2.8957487   -2.0085647 
H     0.8723964   -2.6362557    0.0741543 
H     0.4107441   -3.7226464   -1.9824867 
H     0.8182476   -2.3792446   -2.8916702 
