24
Energy =
C     0.2671767    2.2571318   -2.0963810 
C     0.3373562    2.9402808   -0.9312739 
C     0.8650425    2.3398708    0.1690413 
C     0.7211986    0.9809072   -2.1738131 
C     1.2599761    0.3785110   -1.0779037 
C     1.3213451    1.0637243    0.0970570 
O    -0.1416036    4.2537647   -0.8914201 
H    -0.0560567    4.6967534    0.0168937 
H     1.7276531    0.5906916    0.9880417 
H     0.6486226    0.4461662   -3.1176082 
H    -0.1602823    2.7442267   -2.9659865 
H     0.9190760    2.8768574    1.1099215 
C     1.7457637   -1.0527470   -1.1556117 
C     0.6223568   -2.0452258   -0.8063429 
H     2.6005193   -1.2012237   -0.4582133 
H     2.1322809   -1.2558720   -2.1805888 
C     0.9941085   -3.4603390   -1.2364607 
O     0.5641764   -3.9415471   -2.4648552 
O     1.8322826   -4.2504995   -0.4591397 
H     2.7879533   -3.9667420   -0.6131869 
N     0.3280406   -1.9307822    0.6388344 
H    -0.2841109   -1.7855503   -1.4050873 
H    -0.6787053   -1.6731745    0.7682749 
H     0.4651072   -2.8439009    1.1380063 
