24
Energy =
C     0.3063521    2.6928536   -1.3263849 
C    -0.5588351    2.7089063   -0.2858824 
C    -0.5615332    1.6926120    0.6072855 
C     1.1837626    1.6673102   -1.4683936 
C     1.1986793    0.6499086   -0.5630908 
C     0.3138338    0.6642022    0.4725440 
O    -1.4516020    3.7670961   -0.1382628 
H    -1.0430398    4.5068660    0.4219290 
H     0.2921475   -0.1539593    1.1880695 
H     1.8666951    1.6634401   -2.3138914 
H     0.2845537    3.5031133   -2.0465059 
H    -1.2758176    1.7055965    1.4231990 
C     2.1588613   -0.5101027   -0.7308740 
C     1.5579096   -1.7565209   -1.4528607 
H     2.5331761   -0.8128275    0.2727743 
H     3.0667517   -0.1509622   -1.2677447 
C     0.0630882   -1.6490028   -1.7838055 
O    -0.8627109   -2.2296067   -0.9246299 
O    -0.3968947   -0.9664996   -2.9085411 
H     0.3783838   -0.5659963   -3.4164042 
N     2.3673210   -2.0529155   -2.6507020 
H     1.6219294   -2.6229957   -0.7516517 
H     3.3439831   -2.2937422   -2.3553676 
H     1.9945407   -2.9134784   -3.1212747 
