24
Energy =
C     0.8147253    3.0174279   -0.5109382 
C    -0.3195495    3.0930064   -1.2314183 
C    -0.8729485    1.9707921   -1.7300494 
C     1.3933598    1.8142267   -0.2782936 
C     0.8493975    0.6497491   -0.7631997 
C    -0.3018580    0.7581748   -1.5044431 
O    -0.9132097    4.3283056   -1.4702748 
H    -1.5847889    4.5501280   -0.7432155 
H    -0.8214881   -0.0535651   -1.9487180 
H     2.3111049    1.7952682    0.3063692 
H     1.2589573    3.9292036   -0.1252738 
H    -1.7803010    2.0536813   -2.3199030 
C     1.6465652   -0.6279722   -0.4002785 
C     1.4511603   -2.1854593   -0.6701731 
H     1.7758621   -0.5321793    0.7041017 
H     2.6707726   -0.4161381   -0.7849541 
C     1.5052793   -2.9773571    0.6296372 
O     0.5479881   -2.7766824    1.6201230 
O     2.5552784   -3.8590477    0.8657560 
H     2.4205295   -4.3022416    1.7654284 
N     0.3027417   -2.6487942   -1.4665115 
H     2.3759370   -2.5181213   -1.2025912 
H    -0.3257002   -1.9222127   -1.8046375 
H     0.6333160   -3.1826790   -2.3054199 
