24
Energy =
C     0.7835097    2.4450149   -2.0006197 
C     0.2975345    3.0017450   -0.8671001 
C     0.3113814    2.3025091    0.2908022 
C     1.2802150    1.1817574   -1.9812007 
C     1.3002079    0.4725270   -0.8180309 
C     0.8081592    1.0400164    0.3186302 
O    -0.2114369    4.2959418   -0.8915215 
H    -1.2021407    4.2859541   -1.1103067 
H     0.7938524    0.4807071    1.2506845 
H     1.6571364    0.7406878   -2.9010858 
H     0.7701138    3.0196233   -2.9208998 
H    -0.0836528    2.7596505    1.1916490 
C     1.8241033   -0.9496726   -0.7994946 
C     0.7444222   -2.0513147   -1.0181515 
H     2.3414611   -1.1362570    0.1675434 
H     2.6255605   -1.0459637   -1.5672548 
C    -0.6769954   -1.5226676   -1.2328433 
O    -1.4176389   -1.0770161   -0.1456730 
O    -1.2391628   -1.4525081   -2.5005431 
H    -0.9549363   -0.5851491   -2.9271606 
N     1.1934509   -2.9286580   -2.1174323 
H     0.6681353   -2.6524928   -0.0814124 
H     1.9587108   -3.5528616   -1.7687827 
H     0.4086142   -3.5609940   -2.4128423 
