24
Energy =
C     1.2084013    2.7066345   -1.0071346 
C     0.4954954    2.9511197    0.1164341 
C     0.1376585    1.9167223    0.9237129 
C     1.5687616    1.4387683   -1.3318511 
C     1.2200792    0.4018703   -0.5222981 
C     0.4959780    0.6472195    0.6046803 
O     0.1411149    4.2708031    0.4148699 
H    -0.3894228    4.3717240    1.2733846 
H     0.1937288   -0.1743405    1.2513694 
H     2.1346923    1.2615209   -2.2428656 
H     1.4844416    3.5399979   -1.6443420 
H    -0.4388214    2.1017557    1.8237398 
C     1.5985003   -1.0168368   -0.8876495 
C     0.5644974   -1.8507903   -1.7383499 
H     1.8631831   -1.5410901    0.0573497 
H     2.5663575   -0.9939604   -1.4367218 
C     0.2260307   -3.2113939   -1.1243543 
O     0.8517982   -3.6655372    0.0314156 
O    -0.6420865   -4.0744422   -1.7810805 
H    -0.1404778   -4.5471991   -2.5161215 
N    -0.6856980   -1.1362171   -2.0937322 
H     1.0907077   -2.1190904   -2.6835012 
H    -0.7819766   -0.1629195   -1.7368027 
H    -0.7921824   -1.0904156   -3.1340546 
