24
Energy =
C    -0.8577562    1.9419346   -1.3722735 
C    -0.0323144    2.3642055   -2.3571152 
C     1.2237760    1.8695172   -2.4473147 
C    -0.4257393    1.0294303   -0.4658048 
C     0.8436717    0.5382846   -0.5400223 
C     1.6643066    0.9577568   -1.5429223 
O    -0.4800812    3.2981030   -3.2854511 
H    -0.2939321    4.2420516   -2.9647590 
H     2.6699288    0.5548380   -1.6344235 
H    -1.1024580    0.6884896    0.3141449 
H    -1.8678643    2.3336953   -1.3225151 
H     1.8674752    2.2021974   -3.2548130 
C     1.3229765   -0.4984839    0.4561239 
C     1.1789137   -1.9769344   -0.0208710 
H     0.7933565   -0.3420836    1.4249342 
H     2.3916112   -0.2992136    0.6932168 
C     0.4416446   -2.8244428    1.0077990 
O     1.0315877   -3.9730170    1.5139986 
O    -0.8217173   -2.4577781    1.4558401 
H    -1.5027282   -2.7009184    0.7525609 
N     0.5692987   -2.0690625   -1.3625072 
H     2.2051874   -2.4097524   -0.0802993 
H     0.6124597   -3.0628887   -1.6940468 
H    -0.4432879   -1.8064075   -1.3165903 
