24
Energy =
C     0.1906854    1.8426606    0.7877962 
C     1.0576985    2.7277948    0.2460101 
C     2.0156262    2.2898594   -0.6142480 
C     0.2730378    0.5236062    0.4812136 
C     1.2364246    0.0782332   -0.3715234 
C     2.1032356    0.9714797   -0.9236875 
O     0.9414140    4.0785837    0.5892541 
H     1.6171692    4.6797120    0.1297484 
H     2.8664476    0.6372942   -1.6237242 
H    -0.4379259   -0.1714338    0.9195593 
H    -0.5727615    2.2055184    1.4670077 
H     2.7111079    2.9926650   -1.0605347 
C     1.3153747   -1.3887986   -0.7362813 
C     0.3511386   -1.7444540   -1.8916622 
H     1.0733243   -2.0033169    0.1586409 
H     2.3576133   -1.6589234   -1.0228687 
C     0.6879091   -0.9869135   -3.1650851 
O     1.9199024   -1.1652896   -3.7894736 
O    -0.2182277   -0.0730223   -3.6901937 
H     0.1704329    0.3289685   -4.5330002 
N     0.3628636   -3.2003139   -2.1183894 
H    -0.6851610   -1.4301639   -1.6253600 
H     1.3274631   -3.5088838   -2.3942957 
H     0.1050608   -3.7060770   -1.2389830 
