24
Energy =
C     0.6060178    2.4028991   -2.2251582 
C     0.0122977    2.9750691   -1.1528261 
C     0.0429429    2.3414134    0.0499515 
C     1.2305904    1.2036818   -2.1077943 
C     1.2700823    0.5683918   -0.9040429 
C     0.6693787    1.1443359    0.1741180 
O    -0.6209823    4.2112086   -1.3152034 
H    -1.0631913    4.5627631   -0.4725043 
H     0.6728895    0.6410810    1.1383272 
H     1.6942772    0.7576520   -2.9841050 
H     0.5711291    2.9168408   -3.1800955 
H    -0.4378317    2.7872329    0.9141897 
C     1.9516637   -0.7789712   -0.7695291 
C     0.9921237   -2.0057516   -0.7532022 
H     2.5552316   -0.7805366    0.1653093 
H     2.7073387   -0.8984766   -1.5790758 
C    -0.4948264   -1.6777223   -0.8980886 
O    -1.2470993   -1.3876082    0.2322153 
O    -1.1026811   -1.6209399   -2.1460956 
H    -0.8796223   -0.7386166   -2.5799643 
N     1.4566464   -2.9861511   -1.7526928 
H     1.0692110   -2.4761103    0.2554293 
H     0.8873131   -3.8628548   -1.6624943 
H     1.2535837   -2.6202604   -2.7142590 
