24
Energy =
C     2.3703971    2.2602212   -0.1287556 
C     1.4222776    2.9465811   -0.8131015 
C     0.2995275    2.3171431   -1.2306312 
C     2.2022378    0.9359494    0.1325637 
C     1.0828166    0.2942965   -0.3013778 
C     0.1362691    0.9982207   -0.9670219 
O     1.5989448    4.3003665   -1.0778132 
H     2.0779188    4.4350907   -1.9615034 
H    -0.7842684    0.3402257   -1.3027053 
H     2.9630973    0.4008795    0.6947133 
H     3.2568597    2.7827862    0.2153238 
H    -0.4614144    2.8717522   -1.7687711 
C     0.8308544   -1.1717794    0.0249518 
C     0.1676591   -2.0027528   -1.1198806 
H     0.1790171   -1.2159699    0.9259977 
H     1.7874712   -1.6665205    0.3032139 
C    -1.2755299   -1.5926180   -1.4569554 
O    -1.6492821   -0.2597332   -1.6200916 
O    -2.2302322   -2.5685370   -1.6780810 
H    -2.1124609   -2.9215326   -2.6169747 
N     1.0219269   -2.0117639   -2.3201846 
H     0.0720413   -3.0514657   -0.7533302 
H     1.1011975   -1.0452389   -2.7162107 
H     1.9883519   -2.3249138   -2.0664011 
