24
Energy =
C    -0.1686515    2.2354439    0.0178440 
C     0.4509645    2.9543230   -0.9461397 
C     1.4015868    2.3765099   -1.7157976 
C     0.1701628    0.9374622    0.2250168 
C     1.1404169    0.3539724   -0.5329427 
C     1.7487698    1.0800895   -1.5122767 
O     0.1029438    4.2856516   -1.1520706 
H     0.6621004    4.8982530   -0.5689034 
H     2.5055122    0.6248440   -2.1477153 
H    -0.3426636    0.3691783    0.9964029 
H    -0.9428535    2.7065566    0.6135214 
H     1.8737495    2.9573366   -2.5010811 
C     1.5049657   -1.0996103   -0.3207519 
C     0.6238209   -2.0400576   -1.1765907 
H     1.3875821   -1.3562961    0.7558547 
H     2.5810929   -1.2591317   -0.5556131 
C     0.8236155   -1.8259504   -2.6770305 
O    -0.2136976   -1.2855577   -3.4268240 
O     2.0388077   -2.0921503   -3.3101234 
H     2.6962530   -2.5274320   -2.6840938 
N     0.8594647   -3.4417394   -0.7827443 
H    -0.4513035   -1.7959964   -0.9973674 
H     1.8833749   -3.6626000   -0.7662864 
H     0.4938636   -3.6026928    0.1857928 
