24
Energy =
C    -0.3567275    1.7824244    0.6223298 
C    -0.2392637    2.7184059   -0.3568723 
C     0.5841401    2.4896148   -1.4050894 
C     0.3514140    0.6269782    0.5493194 
C     1.1885160    0.3994597   -0.5001282 
C     1.2941010    1.3353551   -1.4836039 
O    -0.9533553    3.9198815   -0.3124902 
H    -1.5529832    4.0148337    0.5000590 
H     1.9439751    1.1668192   -2.3387132 
H     0.2382757   -0.1204725    1.3304526 
H    -1.0205278    1.9531571    1.4629022 
H     0.6637368    3.2424593   -2.1819952 
C     1.9606079   -0.8989306   -0.5950414 
C     1.1214029   -2.0008446   -1.2758582 
H     2.2729095   -1.2238562    0.4217572 
H     2.9025477   -0.7300335   -1.1665039 
C     1.9852186   -3.1692221   -1.7466855 
O     1.9831929   -3.5077922   -3.0928146 
O     2.7808985   -3.9070312   -0.8702634 
H     2.7148781   -3.5727189    0.0778833 
N     0.0353749   -2.4239430   -0.3706882 
H     0.6741612   -1.5759471   -2.2073844 
H    -0.6128897   -3.0657224   -0.8889049 
H     0.4207287   -2.9770123    0.4309420 
