24
Energy =
C     1.1537215    2.4460046   -1.7671717 
C     0.9108520    3.0720436   -0.5932992 
C     0.8750261    2.3493124    0.5582911 
C     1.3662828    1.1060929   -1.8009797 
C     1.3304556    0.3783363   -0.6523322 
C     1.0830316    1.0079501    0.5297394 
O     0.7025778    4.4554654   -0.5968930 
H     0.5150026    4.8482494    0.3185878 
H     1.0517197    0.4457465    1.4595551 
H     1.5467888    0.6165170   -2.7562460 
H     1.1705835    3.0307487   -2.6804415 
H     0.6808204    2.8440665    1.5036883 
C     1.5601998   -1.1184085   -0.6998697 
C     0.3682003   -1.9515681   -1.2900134 
H     1.7870426   -1.4984195    0.3212524 
H     2.5064135   -1.2871180   -1.2564584 
C    -0.8958478   -1.1467814   -1.5891470 
O    -1.1055654   -0.5754117   -2.8391400 
O    -1.8382599   -0.9352095   -0.5887630 
H    -1.4849947   -0.2344678    0.0437223 
N     0.7792951   -2.7381522   -2.4763611 
H     0.0385254   -2.6585178   -0.4924127 
H     1.7856303   -2.6333462   -2.7380599 
H     0.6032191   -3.7582912   -2.3167915 
