24
Energy =
C    -0.0778486    1.9119389    0.6821865 
C     0.3639006    2.8619332   -0.1736239 
C     1.2246297    2.5332456   -1.1638744 
C     0.3488887    0.6293928    0.5570224 
C     1.2275645    0.2933130   -0.4282144 
C     1.6582622    1.2533722   -1.2939819 
O    -0.0751899    4.1755017   -0.0413299 
H     0.5385107    4.6986367    0.5733112 
H     2.3437226    1.0030468   -2.1009904 
H    -0.0202498   -0.1251709    1.2470444 
H    -0.7805043    2.1867881    1.4614932 
H     1.5551456    3.3015229   -1.8547444 
C     1.6841630   -1.1416102   -0.5810143 
C     0.6847182   -1.9720448   -1.4223787 
H     1.7944204   -1.5959914    0.4284038 
H     2.6968574   -1.1813434   -1.0445998 
C     0.6318806   -1.5196426   -2.8857283 
O     1.8008310   -1.1250435   -3.5303224 
O    -0.5587749   -1.5312898   -3.6125735 
H    -1.3116016   -1.9529472   -3.0895946 
N     1.0220708   -3.4015321   -1.3259309 
H    -0.3349178   -1.8238790   -0.9997302 
H     2.0015049   -3.5626742   -1.6658081 
H     0.9758185   -3.7158805   -0.3278815 
