24
Energy =
C     1.6374044    2.5275729   -0.6628874 
C     1.2262553    2.6609552    0.6187376 
C     0.9636127    1.5507407    1.3591138 
C     1.7892478    1.2960333   -1.2120235 
C     1.5317029    0.1818039   -0.4738220 
C     1.1139617    0.3165187    0.8150603 
O     1.0798081    3.9472500    1.1483226 
H     0.7745304    3.9633581    2.1153622 
H     0.8936481   -0.5621352    1.4171559 
H     2.1178290    1.2100524   -2.2448417 
H     1.8425231    3.4201052   -1.2439862 
H     0.6310448    1.6474740    2.3870567 
C     1.6857382   -1.1906848   -1.0909288 
C     0.4771042   -1.5728819   -1.9755459 
H     1.8172270   -1.9669358   -0.3020677 
H     2.6237867   -1.2117075   -1.6919835 
C     0.7957449   -2.7837923   -2.8442400 
O     1.6555270   -3.7795311   -2.3952421 
O     0.2097732   -2.9121837   -4.0966495 
H    -0.7317474   -3.2582210   -3.9833835 
N    -0.6943817   -1.8216876   -1.1170693 
H     0.2591277   -0.7415540   -2.6869703 
H    -0.9868143   -0.9219253   -0.6676801 
H    -1.5063916   -2.1067266   -1.7141037 
