24
Energy =
C     0.3994857    2.3626669   -2.2668293 
C     0.0261177    3.0271695   -1.1492440 
C     0.3023488    2.5108664    0.0702076 
C     1.0494881    1.1751641   -2.1686894 
C     1.3387564    0.6522381   -0.9444977 
C     0.9522591    1.3240618    0.1765263 
O    -0.6393910    4.2436992   -1.2536585 
H    -1.6434440    4.0999143   -1.2702319 
H     1.1490811    0.9086564    1.1614893 
H     1.3225138    0.6385552   -3.0739713 
H     0.1670304    2.7857049   -3.2383815 
H    -0.0054100    3.0534697    0.9576690 
C     2.0311940   -0.6923998   -0.8331175 
C     1.0563909   -1.9187647   -0.7602469 
H     2.6718895   -0.6926110    0.0766863 
H     2.7567733   -0.7811748   -1.6688822 
C    -0.4215821   -1.5455590   -0.7401700 
O    -1.1065376   -1.2468452   -1.9147181 
O    -1.0812080   -1.4130923    0.4773122 
H    -2.0439864   -1.1602751    0.2950770 
N     1.3302767   -2.9137338   -1.8231363 
H     1.2176495   -2.4023044    0.2320829 
H     2.1242350   -2.6594406   -2.4529259 
H     1.5593336   -3.8420970   -1.3961608 
