24
Energy =
C     1.2405332    2.4992405   -1.4465086 
C     0.4960962    2.9007846   -0.3820088 
C     0.1594659    2.0052567    0.5737807 
C     1.6474252    1.2083286   -1.5464710 
C     1.3157510    0.3076126   -0.5799986 
C     0.5610859    0.7123198    0.4780997 
O     0.0635819    4.2240302   -0.2463058 
H     0.3391381    4.8287006   -1.0126390 
H     0.2720511    0.0069073    1.2529243 
H     2.2305669    0.8988418   -2.4125053 
H     1.5074943    3.2080019   -2.2229421 
H    -0.4399116    2.3377095    1.4142371 
C     1.7450094   -1.1389568   -0.7000210 
C     0.7054899   -1.9856301   -1.4609156 
H     1.9052026   -1.5652548    0.3142767 
H     2.7296592   -1.2152127   -1.2160447 
C     0.5948269   -1.5564777   -2.9170831 
O    -0.6532667   -1.4147596   -3.5060284 
O     1.7327790   -1.3607050   -3.6895516 
H     2.0263109   -2.2617247   -4.0388438 
N     1.0888620   -3.4038791   -1.3494318 
H    -0.3047859   -1.8274313   -1.0118115 
H     0.9854070   -3.7125240   -0.3535484 
H     0.4060836   -3.9862525   -1.8933971 
