24
Energy =
C     0.5984474    2.1719566    0.8515354 
C     0.8749564    2.9581081   -0.2139225 
C     1.2857992    2.4020047   -1.3762408 
C     0.7402288    0.8245882    0.7610788 
C     1.1620465    0.2581729   -0.4045303 
C     1.4359218    1.0561980   -1.4731113 
O     0.7294294    4.3385116   -0.1154157 
H     1.5860031    4.7656565    0.2186787 
H     1.7572860    0.6214847   -2.4171710 
H     0.5127355    0.2073383    1.6265308 
H     0.2586095    2.6329591    1.7725776 
H     1.4849965    3.0428387   -2.2284578 
C     1.3230566   -1.2443346   -0.5180427 
C     0.2613976   -1.9621067   -1.4037906 
H     1.3196312   -1.7085700    0.4929585 
H     2.3456643   -1.4517824   -0.9083876 
C    -0.9015772   -1.0865946   -1.8755921 
O    -0.8830859   -0.4998942   -3.1349986 
O    -1.9911456   -0.8626209   -1.0453923 
H    -1.7244442   -0.2014866   -0.3325983 
N     0.9530319   -2.6355467   -2.5198332 
H    -0.2255579   -2.7461297   -0.7779293 
H     0.2608343   -3.2160247   -3.0529308 
H     1.2935914   -1.9122118   -3.1996181 
