24
Energy =
C    -0.6912082    2.1037420   -0.6557427 
C     0.2302750    3.0605618   -0.9372286 
C     1.5413163    2.7342838   -0.9923242 
C    -0.3028408    0.8025414   -0.4659017 
C     1.0396617    0.4901732   -0.4847285 
C     1.9507945    1.4621020   -0.7579171 
O    -0.1396983    4.3912273   -1.1608038 
H    -1.1410983    4.5508228   -1.1350084 
H     3.0124374    1.2331847   -0.7855183 
H    -1.1157452   -0.1142695   -0.0862752 
H    -1.7423851    2.3569925   -0.5917596 
H     2.2626483    3.5132760   -1.2140327 
C     1.4797179   -0.9339403   -0.1618922 
C     0.6077190   -2.0864497   -0.8014121 
H     1.4468492   -1.0409611    0.9439786 
H     2.5524022   -1.0460147   -0.4209907 
C    -0.6178391   -1.5907013   -1.5764335 
O    -1.2318134   -0.3759180   -1.2109737 
O    -1.1496029   -2.3054832   -2.6360629 
H    -1.9346630   -1.7886143   -3.0115324 
N     1.4401795   -3.0381765   -1.5809324 
H     0.1462659   -2.6648030    0.0300378 
H     1.1481787   -3.0544295   -2.5891450 
H     2.4578246   -2.8066936   -1.5877808 
