24
Energy =
C     1.4722699    2.5062022   -1.2206707 
C     0.3837803    2.9079634   -0.5249754 
C    -0.3007759    2.0204257    0.2323690 
C     1.8883281    1.2160602   -1.1508447 
C     1.2113553    0.3193329   -0.3808053 
C     0.1079577    0.7280410    0.3056548 
O    -0.0376200    4.2322673   -0.5949749 
H     0.3902952    4.7838411    0.1403346 
H    -0.4542218    0.0238717    0.9133824 
H     2.7609737    0.9064532   -1.7216527 
H     2.0024498    3.2236141   -1.8377965 
H    -1.1807449    2.3535859    0.7715839 
C     1.6564138   -1.1252527   -0.3149994 
C     0.8738894   -2.0157930   -1.3017092 
H     1.5219828   -1.5029005    0.7220224 
H     2.7462267   -1.2151130   -0.5338261 
C     1.1599053   -1.6515290   -2.7554827 
O     0.1304700   -1.6817938   -3.6894822 
O     2.4448121   -1.3273553   -3.1793789 
H     2.4194958   -1.1670158   -4.1775213 
N     1.2102842   -3.4224466   -1.0232368 
H    -0.2204274   -1.8582500   -1.1540108 
H     0.8139101   -3.6944382   -0.0930650 
H     0.7333506   -4.0352456   -1.7279757 
