24
Energy =
C     0.9153673    2.6903772   -1.4036772 
C     0.7067214    3.0297177   -0.1125560 
C     0.7899315    2.0894865    0.8545359 
C     1.2067896    1.4063265   -1.7331830 
C     1.2618487    0.4410775   -0.7708146 
C     1.0805132    0.8024800    0.5332902 
O     0.4132093    4.3480993    0.2223281 
H     1.2625135    4.8645922    0.4220699 
H     1.1797187    0.0754935    1.3342302 
H     1.4055306    1.1634983   -2.7737769 
H     0.8534034    3.4568342   -2.1687201 
H     0.6275944    2.3805506    1.8867912 
C     1.6258377   -0.9917281   -1.1375636 
C     0.5695906   -1.7857240   -1.9621054 
H     1.9054625   -1.5779634   -0.2345825 
H     2.5559540   -0.9441324   -1.7478640 
C    -0.6973285   -2.2796575   -1.2429086 
O    -1.5892678   -3.0554579   -1.9702213 
O    -0.9810569   -2.0654520    0.1039440 
H    -0.3519967   -1.4224007    0.5352381 
N     0.2589863   -1.0656767   -3.2105523 
H     1.0728564   -2.7416905   -2.2408978 
H    -0.1681554   -1.7387318   -3.8935858 
H    -0.4943568   -0.3605747   -3.0198844 
