24
Energy =
C    -0.4667654    2.2500245   -0.7539535 
C     0.5556751    2.9948085   -1.2322790 
C     1.8079726    2.4655201   -1.2823281 
C    -0.2481392    0.9829026   -0.3199799 
C     1.0035289    0.4498831   -0.3636431 
C     2.0313048    1.1972640   -0.8521573 
O     0.2917610    4.2968831   -1.6672098 
H     1.1073113    4.7887838   -2.0158751 
H     3.0367865    0.7873648   -0.9028927 
H    -1.0790089    0.3748954    0.0375583 
H    -1.4626732    2.6799141   -0.7308236 
H     2.6331289    3.0547965   -1.6681877 
C     1.2332761   -0.9667077    0.1235826 
C     0.6592100   -2.0828490   -0.8051768 
H     0.7951375   -1.0369823    1.1454569 
H     2.3197814   -1.1517662    0.2733397 
C    -0.1044854   -3.1247817    0.0034304 
O     0.1406365   -4.4778426   -0.1973016 
O    -1.0588867   -2.7428644    0.9406300 
H    -1.4707711   -3.5792184    1.3340682 
N    -0.1741601   -1.5211042   -1.8891886 
H     1.5171752   -2.6339957   -1.2583969 
H     0.4503148   -1.0542596   -2.5891504 
H    -0.6387475   -2.3050916   -2.4092791 
