24
Energy =
C     0.8063016    2.7277849   -1.6298564 
C    -0.5443984    2.7315190   -1.5513833 
C    -1.1821828    1.7284863   -0.8907353 
C     1.5272549    1.7324568   -1.0530518 
C     0.8933365    0.7305070   -0.3844915 
C    -0.4659427    0.7319828   -0.3107034 
O    -1.2511408    3.7738677   -2.1595857 
H    -2.2579130    3.7014280   -2.0609673 
H    -0.9799874   -0.0837726    0.1960872 
H     2.6108731    1.7451642   -1.1328917 
H     1.3021287    3.5316339   -2.1631605 
H    -2.2651705    1.7169064   -0.8308600 
C     1.6811806   -0.3918529    0.2609289 
C     1.6234464   -1.7582454   -0.4950673 
H     1.3086861   -0.4984774    1.3056926 
H     2.7460813   -0.0920688    0.3775477 
C     1.2759212   -2.8964710    0.4558306 
O     0.1365212   -2.8346947    1.2542611 
O     2.1023272   -4.0113654    0.5317447 
H     1.7139930   -4.6659162    1.1986632 
N     0.6953766   -1.7117993   -1.6438718 
H     2.6484851   -1.9936600   -0.8687588 
H     1.1035347   -1.0965130   -2.3871745 
H     0.6255740   -2.6656358   -2.0748361 
