24
Energy =
C    -0.0867755    1.8826397   -2.3872024 
C    -0.3542423    2.6938992   -1.3380292 
C     0.1618176    2.4162332   -0.1189606 
C     0.6937372    0.7841803   -2.2186164 
C     1.2187498    0.4994068   -0.9942933 
C     0.9433583    1.3204639    0.0568886 
O    -1.1559080    3.8172481   -1.5146652 
H    -2.1322244    3.5871026   -1.3656303 
H     1.3416507    1.0997282    1.0439373 
H     0.8994405    0.1384355   -3.0680939 
H    -0.5007762    2.1238125   -3.3604258 
H    -0.0568651    3.0774018    0.7124654 
C     2.0723453   -0.7343808   -0.7972444 
C     1.2261838   -1.9429408   -0.3465249 
H     2.8679500   -0.5295937   -0.0444765 
H     2.6053482   -0.9725845   -1.7454904 
C     2.0266808   -3.2428042   -0.4505654 
O     2.6270702   -3.7844860    0.6795218 
O     2.1981123   -3.8880502   -1.6750138 
H     1.7733688   -3.3812636   -2.4367339 
N     0.7135634   -1.6945634    1.0158198 
H     0.3613291   -2.0576563   -1.0399719 
H     0.1200652   -2.5043938    1.3194379 
H     1.5146426   -1.6618240    1.6925301 
