24
Energy =
C     0.3824822    2.2572001    0.6375700 
C     0.1279214    2.9824626   -0.4761976 
C     0.4231709    2.4762761   -1.6956466 
C     0.9511277    1.0289266    0.5364824 
C     1.2736882    0.5224003   -0.6866960 
C     0.9936621    1.2494752   -1.8045811 
O    -0.4459505    4.2454620   -0.3680515 
H     0.2683097    4.9599467   -0.2850192 
H     1.2043245    0.8415849   -2.7906311 
H     1.1340317    0.4502159    1.4378635 
H     0.1172551    2.6633615    1.6077757 
H     0.1866068    3.0552114   -2.5819914 
C     1.8892195   -0.8588011   -0.8097734 
C     0.8702836   -2.0093031   -1.0620982 
H     2.4743835   -1.0882859    0.1080419 
H     2.6442029   -0.8331220   -1.6278111 
C    -0.5927337   -1.5590291   -1.0710658 
O    -1.1821243   -1.0672507   -2.2290760 
O    -1.3369171   -1.5918253    0.1019991 
H    -1.6583520   -2.5350156    0.2610754 
N     1.2458411   -2.7096883   -2.3049049 
H     0.9484809   -2.7264266   -0.2123617 
H     2.1045233   -3.2830141   -2.1300099 
H     0.4904752   -3.3830432   -2.5803333 
