24
Energy =
C     1.5255666    2.4434339   -0.8521209 
C     0.8183710    2.6804135    0.2759501 
C     0.3639511    1.6339992    1.0163699 
C     1.7891964    1.1712991   -1.2443334 
C     1.3449600    0.1202906   -0.5010330 
C     0.6221840    0.3595140    0.6276840 
O     0.5722660    4.0054651    0.6505037 
H     0.0229793    4.0997789    1.4976887 
H     0.2441605   -0.4659955    1.2260369 
H     2.3468036    1.0016969   -2.1642211 
H     1.8722489    3.2862556   -1.4403923 
H    -0.2096154    1.8143451    1.9191722 
C     1.6141487   -1.3004528   -0.9479845 
C     0.5223310   -1.8169735   -1.9037180 
H     1.6683209   -1.9730321   -0.0628125 
H     2.6097320   -1.3680655   -1.4420210 
C     0.5309471   -1.0759136   -3.2342646 
O    -0.6509055   -0.5673059   -3.7516751 
O     1.7117936   -0.9049329   -3.9481113 
H     1.9385409   -1.7690940   -4.4176129 
N     0.6960689   -3.2710138   -2.0666465 
H    -0.4779193   -1.6196189   -1.4482613 
H    -0.0908854   -3.6487342   -2.6487089 
H     1.5831135   -3.4720113   -2.5871483 
