24
Energy =
C     0.2565896    2.0823887    0.7544779 
C     0.0799503    2.9345376   -0.2807231 
C     0.4987589    2.5775408   -1.5243970 
C     0.8529312    0.8793512    0.5604635 
C     1.2870611    0.5225762   -0.6799548 
C     1.0959328    1.3752944   -1.7242182 
O    -0.5351953    4.1668504   -0.0398045 
H    -0.6535063    4.7374045   -0.8700557 
H     1.4065674    1.0943232   -2.7274813 
H     0.9662407    0.1980077    1.3997604 
H    -0.0937413    2.3722517    1.7392231 
H     0.3499920    3.2488012   -2.3635269 
C     1.9237065   -0.8349038   -0.9069594 
C     0.9183888   -1.9768090   -1.2358780 
H     2.5115781   -1.1192971   -0.0063901 
H     2.6833799   -0.7500452   -1.7163835 
C    -0.5493096   -1.5564127   -1.2245942 
O    -1.1572140   -1.0520447   -2.3692527 
O    -1.2766555   -1.6181933   -0.0440522 
H    -2.2138197   -1.2822213   -0.2281956 
N     1.3154566   -2.6135019   -2.5062353 
H     0.9952146   -2.7372908   -0.4241908 
H     0.7210726   -3.4631229   -2.6609311 
H     1.0886373   -1.9635363   -3.2985661 
