24
Energy =
C    -0.2027029    1.3723089    1.2149395 
C    -0.3143112    2.4998775    0.4754350 
C     0.3310427    2.5995603   -0.7093175 
C     0.5518689    0.3360245    0.7686455 
C     1.2093877    0.4313084   -0.4209643 
C     1.0888333    1.5687623   -1.1609286 
O    -1.0904509    3.5587175    0.9355488 
H    -2.0456597    3.4681902    0.6052183 
H     1.5796311    1.6475012   -2.1273811 
H     0.6159238   -0.5716971    1.3630563 
H    -0.7276834    1.3048543    2.1618813 
H     0.2280675    3.5061318   -1.2953143 
C     2.0197607   -0.7374017   -0.9467553 
C     1.2258985   -1.7003596   -1.8966550 
H     2.4074536   -1.3268584   -0.0858272 
H     2.9368506   -0.3339892   -1.4249876 
C    -0.2553096   -1.3631193   -2.0452625 
O    -1.2061272   -2.0826374   -1.3320771 
O    -0.6744781   -0.3223773   -2.8646677 
H    -0.8267955   -0.7020084   -3.7869489 
N     1.8681070   -1.8233403   -3.2276929 
H     1.2192968   -2.7032011   -1.4062037 
H     2.7533908   -1.2760442   -3.3256474 
H     2.1125100   -2.8249454   -3.4155207 
