24
Energy =
C    -0.5472519    2.0942893   -0.1604172 
C     0.3834897    2.9796613   -0.5842477 
C     1.6354716    2.5584850   -0.8785534 
C    -0.2284485    0.7808250   -0.0330228 
C     1.0293222    0.3489240   -0.3277562 
C     1.9610060    1.2457714   -0.7557995 
O     0.0542827    4.3247511   -0.7125387 
H    -0.2876750    4.5225387   -1.6465792 
H     2.9692725    0.9216578   -0.9998709 
H    -0.9847967    0.0621463    0.2814848 
H    -1.5469563    2.4464898    0.0715360 
H     2.3726152    3.2822352   -1.2098459 
C     1.3716963   -1.1204591   -0.1848698 
C     0.7574587   -2.0498502   -1.2804680 
H     1.0481243   -1.4356029    0.8340633 
H     2.4755585   -1.2581225   -0.1767737 
C     0.1196606   -3.2833247   -0.6523593 
O    -0.7682402   -3.1613948    0.4103074 
O     0.4022876   -4.5457692   -1.1552320 
H    -0.1479189   -4.6933419   -1.9884174 
N    -0.1986011   -1.3236582   -2.1434076 
H     1.5917347   -2.4428539   -1.9092776 
H     0.3309658   -0.6574907   -2.7554178 
H    -0.6661434   -1.9953660   -2.7984493 
