24
Energy =
C     0.3757620    1.5839556    1.2086515 
C     0.2421756    2.6740300    0.4185230 
C     0.6501770    2.6304151   -0.8705591 
C     0.9135730    0.4420556    0.7096843 
C     1.3314284    0.3918960   -0.5863638 
C     1.1904176    1.4930616   -1.3760246 
O    -0.3115158    3.8417898    0.9332276 
H    -1.3162685    3.8509575    0.7905942 
H     1.4900015    1.4608425   -2.4198083 
H     0.9933214   -0.4334480    1.3490498 
H     0.0410594    1.6315681    2.2394819 
H     0.5323283    3.5096682   -1.4941741 
C     1.8894593   -0.8946352   -1.1631536 
C     0.8174159   -1.8167835   -1.8424564 
H     2.3893600   -1.4686223   -0.3506759 
H     2.7211516   -0.6348250   -1.8510355 
C    -0.6288047   -1.3341063   -1.6724290 
O    -1.4043537   -1.8535647   -0.6441879 
O    -1.1480739   -0.2957369   -2.4412005 
H    -1.3670810   -0.6326175   -3.3653769 
N     1.1787555   -2.1516377   -3.2449144 
H     0.8227290   -2.7789024   -1.2795430 
H     0.4350334   -1.8733595   -3.9245806 
H     2.0583049   -1.6936394   -3.5756554 
