24
Energy =
C     1.4077674    2.8274742   -1.2352737 
C     0.0772204    2.9226182   -1.4470909 
C    -0.7083708    1.8328621   -1.3062737 
C     1.9599978    1.6366862   -0.8916153 
C     1.1833822    0.5216616   -0.7614672 
C    -0.1656353    0.6371305   -0.9619325 
O    -0.4861191    4.1451760   -1.7983683 
H    -0.5098312    4.2522621   -2.8066637 
H    -0.8342839   -0.2066490   -0.8579375 
H     3.0329392    1.5843903   -0.7204184 
H     2.0249851    3.7138531   -1.3373693 
H    -1.7771284    1.9287670   -1.4656381 
C     1.8645675   -0.7786240   -0.3424593 
C     1.0765269   -2.0958558   -0.5908533 
H     2.1236192   -0.7081561    0.7376964 
H     2.8369461   -0.8283354   -0.8845057 
C     2.0153561   -3.2468725   -0.9451834 
O     2.9139516   -3.1122614   -1.9954831 
O     1.9471570   -4.4626210   -0.2768415 
H     2.5303152   -4.4084997    0.5450978 
N     0.2790610   -2.4081508    0.6117241 
H     0.4220873   -1.9991677   -1.4860851 
H    -0.4130376   -1.6496085    0.8045359 
H    -0.2765117   -3.2820105    0.4407332 
