24
Energy =
C     0.0938314    2.3778006   -0.2187741 
C    -0.7415457    2.4855054   -1.2774329 
C    -0.6839632    1.5788590   -2.2798857 
C     1.0000135    1.3686812   -0.1653334 
C     1.0740620    0.4608672   -1.1774086 
C     0.2185931    0.5654657   -2.2325437 
O    -1.6681254    3.5223300   -1.3308532 
H    -1.2754175    4.3289740   -1.8032655 
H     0.2471641   -0.1609350   -3.0407243 
H     1.6564280    1.2842229    0.6973340 
H     0.0245037    3.0998916    0.5874220 
H    -1.3719858    1.6687493   -3.1136160 
C     2.0655029   -0.6785018   -1.1079277 
C     1.4809110   -1.8944712   -0.3588380 
H     3.0006278   -0.3469466   -0.6028961 
H     2.3768394   -0.9736355   -2.1352398 
C     2.2964008   -3.1530601   -0.6121167 
O     1.6608950   -4.3844017   -0.6995208 
O     3.6790290   -3.0930229   -0.7297373 
H     4.0327013   -4.0322515   -0.8625923 
N     1.3862987   -1.5766314    1.0779300 
H     0.4628038   -2.1143255   -0.7594326 
H     0.9003193   -2.3646418    1.5706698 
H     2.3517320   -1.5274773    1.4845797 
