24
Energy =
C    -1.0227512    1.7359798   -0.3044293 
C    -0.2883939    2.8484672   -0.5310387 
C     1.0428517    2.7475746   -0.7449209 
C    -0.4270674    0.5166720   -0.2873922 
C     0.9116157    0.4019131   -0.5209040 
C     1.6465011    1.5319274   -0.7297233 
O    -0.9021024    4.0977070   -0.5432692 
H    -0.9021800    4.5076891    0.3842798 
H     2.7209494    1.4758699   -0.8853345 
H    -1.0320120   -0.3613813   -0.0776868 
H    -2.0894861    1.8316283   -0.1335349 
H     1.6188903    3.6487061   -0.9259166 
C     1.5872625   -0.9569993   -0.4684301 
C     1.0255614   -1.9916032   -1.4793286 
H     1.4331857   -1.3536297    0.5616929 
H     2.6910351   -0.8826397   -0.5871260 
C     1.4593391   -1.8395779   -2.9499434 
O     1.0906069   -2.8384189   -3.8415134 
O     2.1939349   -0.7657555   -3.4519562 
H     2.3065890   -0.0220789   -2.7925118 
N     1.3645588   -3.3274753   -0.9567094 
H    -0.0841471   -1.9094791   -1.5098928 
H     0.8403059   -4.0547978   -1.5032338 
H     2.3817034   -3.5237376   -1.1217507 
