24
Energy =
C     1.1279222    2.8397163   -0.8371158 
C    -0.2187540    2.8550780   -1.0096416 
C    -0.9052251    1.6922997   -0.9982866 
C     1.7794636    1.6633458   -0.6577644 
C     1.0965974    0.4819649   -0.6590007 
C    -0.2609170    0.5114877   -0.8188919 
O    -0.9215733    4.0496487   -1.1967949 
H    -0.3367132    4.8783782   -1.1943878 
H    -0.8570078   -0.3911448   -0.8134985 
H     2.8574327    1.6783952   -0.5114863 
H     1.6873259    3.7691900   -0.8383011 
H    -1.9812410    1.7197740   -1.1324291 
C     1.8818876   -0.8042011   -0.4174003 
C     1.2272120   -2.1264679   -0.9093101 
H     2.1044481   -0.8941060    0.6689637 
H     2.8743269   -0.6893315   -0.9111532 
C     2.2630628   -3.1133146   -1.4368822 
O     1.8723623   -4.1125463   -2.3201996 
O     3.5945573   -3.0472938   -1.0400902 
H     4.0955968   -3.8165480   -1.4665043 
N     0.4623998   -2.7312551    0.1981210 
H     0.5634872   -1.9293546   -1.7817899 
H    -0.2995013   -2.0917170    0.5162606 
H    -0.0043968   -3.6068092   -0.1438935 
