24
Energy =
C    -0.2440880    1.6323890    0.8954081 
C    -0.0863797    2.6881429    0.0645769 
C     0.7212947    2.5848706   -1.0158164 
C     0.4023566    0.4654894    0.6450274 
C     1.2199088    0.3540717   -0.4390146 
C     1.3705619    1.4206999   -1.2735165 
O    -0.7506970    3.8825705    0.3242095 
H    -1.6552583    3.8964941   -0.1341455 
H     2.0110148    1.3498041   -2.1491202 
H     0.2568049   -0.3803932    1.3120534 
H    -0.8917557    1.7300205    1.7599955 
H     0.8432864    3.4422966   -1.6689900 
C     1.9252153   -0.9519763   -0.7343444 
C     1.0536658   -1.8853597   -1.5994634 
H     2.1971325   -1.4652406    0.2156245 
H     2.8893684   -0.7464209   -1.2524720 
C     1.8611278   -3.0725568   -2.1274780 
O     2.8608269   -3.6313684   -1.3401365 
O     1.5812281   -3.6499726   -3.3656101 
H     0.7998035   -3.2081713   -3.8266645 
N    -0.1163214   -2.3208156   -0.8163640 
H     0.7067862   -1.3063343   -2.4858326 
H    -0.7701727   -2.8512726   -1.4402529 
H     0.1911487   -2.9941316   -0.0723003 
