24
Energy =
C     1.0829669    2.3104905    1.3120824 
C     0.2878959    3.0612055    0.5237866 
C    -0.1719379    2.5587298   -0.6400863 
C     1.4272752    1.0548844    0.9331669 
C     0.9738618    0.5207958   -0.2438343 
C     0.1675436    1.3026195   -1.0303202 
O    -0.0619644    4.3507265    0.9126783 
H     0.6118479    5.0246375    0.5664553 
H    -0.2378291    0.9844253   -1.9683389 
H     2.0734897    0.4763574    1.5897087 
H     1.4388238    2.7222716    2.2504991 
H    -0.8199340    3.1718264   -1.2575021 
C     1.4537581   -0.9084841   -0.5557997 
C     1.0053704   -1.8053397   -1.7721724 
H     1.2488367   -1.4836819    0.3775017 
H     2.5641394   -0.8529992   -0.6012310 
C     0.5465580   -3.1873910   -1.3093606 
O    -0.3849421   -3.3275736   -0.2859541 
O     1.0592769   -4.3263985   -1.9172535 
H     0.6283475   -5.1415030   -1.4991278 
N     0.0126241   -1.1739958   -2.6536993 
H     1.9183733   -2.0244146   -2.3771217 
H     0.5252672   -0.6092424   -3.3720710 
H    -0.5035860   -1.9032766   -3.2034984 
