24
Energy =
C     0.0191485    2.3884465   -0.2321234 
C    -0.4906397    1.9582723    0.9448667 
C    -0.1688541    0.7310111    1.4135331 
C     0.8479320    1.5879037   -0.9503006 
C     1.1729890    0.3488393   -0.4874886 
C     0.6592276   -0.0751830    0.7016446 
O    -1.3395268    2.7816418    1.6774355 
H    -2.3055757    2.6331669    1.4067684 
H     0.9057266   -1.0620902    1.0896344 
H     1.2497381    1.9470534   -1.8941128 
H    -0.2391335    3.3797507   -0.5892797 
H    -0.5772395    0.4028304    2.3636490 
C     2.0873007   -0.5537040   -1.2895015 
C     1.3246183   -1.4964923   -2.2550156 
H     2.7011469   -1.1694279   -0.5911822 
H     2.8196520    0.0565471   -1.8625933 
C     0.3645732   -2.4213553   -1.5191074 
O     0.8778346   -3.3984437   -0.6767668 
O    -1.0125624   -2.2507838   -1.5893288 
H    -1.2858006   -1.5258474   -0.9445356 
N     0.6714786   -0.7332707   -3.3351973 
H     2.0625443   -2.1916552   -2.7179848 
H    -0.1273742   -0.1738545   -2.9527257 
H     1.3489386   -0.0699856   -3.7779083 
