24
Energy =
C     2.1653638    2.3322151   -0.6897339 
C     0.9473697    2.9382676   -0.7155496 
C    -0.1721309    2.2048792   -0.5273638 
C     2.2658567    0.9978964   -0.4648641 
C     1.1458030    0.2546939   -0.2700757 
C    -0.0966165    0.8505287   -0.3407567 
O     0.8207075    4.3160719   -0.9218526 
H     1.7025668    4.7955248   -1.0650132 
H    -1.1298158    0.1488634   -0.0236181 
H     3.2474189    0.5326314   -0.4402795 
H     3.0655541    2.9180661   -0.8409384 
H    -1.1352331    2.7004649   -0.5354952 
C     1.2109125   -1.2446865   -0.0392775 
C     0.4571065   -2.0264129   -1.1551297 
H     0.7426777   -1.4672973    0.9448407 
H     2.2620159   -1.6028150    0.0251067 
C    -0.9553373   -1.4818207   -1.3625628 
O    -1.2049544   -0.1156196   -1.1460924 
O    -1.9696179   -2.2851873   -1.8483266 
H    -1.8659431   -2.3730365   -2.8485350 
N     1.2504346   -2.0488966   -2.4094391 
H     0.3118463   -3.0771683   -0.8140514 
H     0.7054150   -1.6401633   -3.2065108 
H     2.1069172   -1.4503951   -2.3425315 
