24
Energy =
C     0.9723203    2.2335211    0.6131230 
C     0.1182172    2.8287519   -0.2500805 
C    -0.1706309    2.2243196   -1.4333504 
C     1.5406395    1.0397209    0.3064325 
C     1.2531979    0.4287908   -0.8760878 
C     0.3944932    1.0303515   -1.7452836 
O    -0.4463290    4.0591622    0.1020050 
H    -1.0770007    4.4385589   -0.5957158 
H     0.1559408    0.5595223   -2.6958805 
H     2.2247203    0.5807861    1.0150652 
H     1.1948519    2.7263284    1.5533209 
H    -0.8536997    2.6946288   -2.1325345 
C     1.8775700   -0.9056953   -1.2269102 
C     0.8657218   -2.0785054   -1.1143566 
H     2.7628009   -1.1178851   -0.5864850 
H     2.2739974   -0.8381291   -2.2664171 
C     1.4146303   -3.3482706   -1.7712419 
O     2.1579700   -3.2601178   -2.9404556 
O     1.0685932   -4.6083203   -1.3010566 
H     0.1427554   -4.8352562   -1.6334635 
N     0.4344909   -2.2749533    0.2943164 
H    -0.0349010   -1.8297246   -1.7188394 
H     0.6221888   -3.2515491    0.6298491 
H     0.9474431   -1.6543224    0.9614486 
