24
Energy =
C    -0.3519239    2.1078643    0.1590386 
C     0.0249747    2.8650708   -0.8963308 
C     0.9783303    2.4026911   -1.7484995 
C     0.2160276    0.8938441    0.3730532 
C     1.1790480    0.4312877   -0.4704180 
C     1.5518221    1.1907726   -1.5377749 
O    -0.5827948    4.1110995   -1.0816589 
H    -0.2650325    4.6063477   -1.9077914 
H     2.3020149    0.8269275   -2.2367847 
H    -0.1078274    0.2964753    1.2214335 
H    -1.1184488    2.4852400    0.8272196 
H     1.2800388    2.9981452   -2.6034440 
C     1.7952895   -0.9337008   -0.2484279 
C     0.9929230   -2.0504070   -0.9631502 
H     1.8281603   -1.1444256    0.8447130 
H     2.8536687   -0.9380934   -0.5914372 
C     0.9279336   -1.8355665   -2.4767461 
O    -0.2966829   -1.5711246   -3.0752603 
O     2.0744613   -1.8606131   -3.2722583 
H     2.8988666   -2.0736911   -2.7319868 
N     1.5129538   -3.3892425   -0.5901234 
H    -0.0694053   -1.9905822   -0.6252891 
H     1.9279462   -3.8966359   -1.4094708 
H     2.2535903   -3.3494346    0.1498371 
