24
Energy =
C    -0.3937104    2.1197483   -1.1282611 
C     0.4928658    3.0028372   -0.6192156 
C     1.6253538    2.5597819   -0.0311805 
C    -0.1469429    0.7867629   -1.0616327 
C     1.0057540    0.3243730   -0.4877808 
C     1.8816787    1.2290467    0.0395760 
O     0.2332248    4.3677489   -0.6887675 
H     0.6116185    4.7621540   -1.5431287 
H     2.7954358    0.8952600    0.5265626 
H    -0.8857377    0.1142980   -1.4780374 
H    -1.3065211    2.4896685   -1.5831069 
H     2.3195836    3.2799848    0.3889463 
C     1.3252909   -1.1610978   -0.3467373 
C     0.6798913   -2.1049630   -1.4022210 
H     1.0364233   -1.5000370    0.6735414 
H     2.4335581   -1.2727501   -0.3932585 
C     1.6130769   -3.2490589   -1.7754872 
O     2.4965084   -3.7861414   -0.8465164 
O     1.5627571   -3.7952598   -3.0507786 
H     0.7618524   -4.4068421   -3.1096576 
N    -0.5948166   -2.6366448   -0.8807463 
H     0.5182052   -1.5548028   -2.3582826 
H    -1.1977637   -1.8730399   -0.4975071 
H    -1.1340291   -3.0789474   -1.6628388 
