24
Energy =
C     1.0558195    2.7302673   -1.3131326 
C     0.7247088    3.0117748   -0.0317300 
C     0.6646114    2.0190541    0.8857121 
C     1.3380429    1.4540591   -1.6800540 
C     1.2915157    0.4523184   -0.7587935 
C     0.9456824    0.7403605    0.5264728 
O     0.4336122    4.3207882    0.3398422 
H     1.2718810    4.7994325    0.6509399 
H     0.8865596   -0.0507253    1.2702798 
H     1.5943748    1.2390500   -2.7143632 
H     1.0860286    3.5336979   -2.0412868 
H     0.3831274    2.2579224    1.9055645 
C     1.5800865   -0.9747599   -1.1669665 
C     0.3728962   -1.8476906   -1.6718662 
H     2.0958736   -1.4785208   -0.3154175 
H     2.3621044   -0.9613552   -1.9602453 
C     0.2870627   -3.1610275   -0.8978544 
O     0.8967762   -4.2961083   -1.4179185 
O    -0.3092386   -3.2340862    0.3599924 
H    -0.7544353   -2.3583513    0.5910981 
N    -0.9468832   -1.1676399   -1.6921304 
H     0.6205713   -2.1717515   -2.7120091 
H    -0.9540686   -0.1786067   -1.3626984 
H    -1.3246240   -1.1500454   -2.6693226 
