24
Energy =
C     1.3272535    2.6643014   -0.9442824 
C     0.5808229    2.8548347    0.1680995 
C     0.1726836    1.7929665    0.9000097 
C     1.6637008    1.4078961   -1.3331204 
C     1.2581725    0.3334446   -0.5996572 
C     0.5055156    0.5336871    0.5180963 
O     0.2374786    4.1437891    0.5625521 
H    -0.6382816    4.4269768    0.1368368 
H     0.1593998   -0.3147300    1.1040072 
H     2.2578382    1.2692177   -2.2323095 
H     1.6532716    3.5255464   -1.5175766 
H    -0.4225659    1.9605769    1.7912311 
C     1.6116517   -1.0755758   -1.0333884 
C     0.4741676   -1.8340813   -1.7941179 
H     1.9345701   -1.6334566   -0.1255564 
H     2.5187470   -1.0545585   -1.6766563 
C     0.1432939   -3.1829348   -1.1507657 
O     1.1113530   -3.8948016   -0.4496547 
O    -1.0942981   -3.7803060   -1.3587955 
H    -1.1028952   -4.6746676   -0.8851088 
N    -0.7249144   -0.9833856   -1.9466949 
H     0.8546142   -2.0990413   -2.8071069 
H    -0.5267472   -0.2464473   -2.6625520 
H    -1.5146859   -1.5546384   -2.3361988 
