24
Energy =
C     0.3872684    2.3073603   -1.8902551 
C    -0.2057679    2.7777146   -0.7690703 
C    -0.1026694    2.0894359    0.3909588 
C     1.0946286    1.1493965   -1.8529975 
C     1.2101402    0.4549632   -0.6868194 
C     0.6025923    0.9302907    0.4363155 
O    -0.9309263    3.9642022   -0.8111125 
H    -0.3349603    4.7565877   -0.5981295 
H     0.6713911    0.3858930    1.3744751 
H     1.5641322    0.7810660   -2.7621186 
H     0.2856480    2.8628298   -2.8165631 
H    -0.5950016    2.4723878    1.2784500 
C     1.9834299   -0.8445908   -0.6511228 
C     1.1732403   -2.0213372   -1.2495599 
H     2.2938107   -1.0871533    0.3898594 
H     2.9260319   -0.7084233   -1.2296809 
C     2.0566723   -3.2377765   -1.4845219 
O     2.4653819   -3.5560036   -2.7729040 
O     2.5507171   -3.9804302   -0.4174045 
H     3.3168065   -3.4814702    0.0070024 
N     0.0243865   -2.3551467   -0.3895391 
H     0.7955079   -1.7376521   -2.2596916 
H     0.3498871   -2.5854466    0.5795012 
H    -0.6314217   -1.5414101   -0.3308893 
