24
Energy =
C     0.6939093    2.6632018   -1.0863116 
C    -0.0825552    2.8184235    0.0106612 
C    -0.2505715    1.7897025    0.8729885 
C     1.3030955    1.4742828   -1.3277754 
C     1.1431219    0.4354317   -0.4615244 
C     0.3548259    0.5974370    0.6382000 
O    -0.7051360    4.0380097    0.2545415 
H    -1.6230233    4.0633563   -0.1759481 
H     0.2010179   -0.2281268    1.3303522 
H     1.9116787    1.3552005   -2.2201215 
H     0.8208604    3.4974753   -1.7678493 
H    -0.8734936    1.9304516    1.7499800 
C     1.8007253   -0.9014149   -0.7390465 
C     0.9910687   -1.8392885   -1.6877943 
H     2.0119848   -1.4055640    0.2328776 
H     2.8072249   -0.7229981   -1.1782166 
C     0.8093708   -3.2202379   -1.0766737 
O     0.1890085   -3.3640488    0.1573008 
O     1.2477754   -4.3500121   -1.7518742 
H     0.5788139   -4.5849707   -2.4704777 
N    -0.2984057   -1.2386183   -2.0858523 
H     1.6036868   -2.0000870   -2.6054744 
H    -0.7463392   -1.8331056   -2.8227330 
H    -0.9521661   -1.2476414   -1.2643751 
