24
Energy =
C     0.1057470    2.3918721   -1.2444579 
C     0.0616373    2.7538545    0.0654051 
C     0.6250087    1.9540448    0.9988862 
C     0.7117939    1.2343003   -1.6123238 
C     1.2792638    0.4278566   -0.6730142 
C     1.2325599    0.7955222    0.6371130 
O    -0.5539409    3.9399780    0.4782653 
H    -0.9561184    4.4820793   -0.2786779 
H     1.6780732    0.1684653    1.4047462 
H     0.7386694    0.9570774   -2.6635852 
H    -0.3440134    3.0272544   -1.9998539 
H     0.5820045    2.2545726    2.0400610 
C     1.9483779   -0.8653177   -1.0871483 
C     0.9211139   -1.9636000   -1.4607419 
H     2.6221610   -1.2467047   -0.2862642 
H     2.6124750   -0.6567225   -1.9578373 
C     1.6175148   -3.1095530   -2.1812976 
O     2.5194084   -3.9190903   -1.5044370 
O     1.3903376   -3.3262947   -3.5325231 
H     0.5244462   -3.8348867   -3.6407024 
N     0.1497101   -2.4125472   -0.2749068 
H     0.2030058   -1.5471728   -2.2035987 
H     0.2491367   -3.4460040   -0.1190677 
H     0.4855008   -1.9674441    0.6100332 
