24
Energy =
C    -0.9071099    1.8616423   -0.3620615 
C    -0.1306235    2.8588216    0.1121910 
C     1.2105611    2.7128317    0.1413163 
C    -0.3468157    0.7125340   -0.8197922 
C     1.0144764    0.5498462   -0.8017660 
C     1.7816662    1.5696613   -0.3131996 
O    -0.7131933    4.0330625    0.5787512 
H    -0.8028395    4.7114465   -0.1698767 
H     2.8652054    1.4774509   -0.2787759 
H    -1.0261409   -0.0408196   -1.1844462 
H    -1.9844032    1.9905203   -0.3685856 
H     1.8217137    3.5177515    0.5356930 
C     1.7576001   -0.6944427   -1.2943472 
C     0.9574916   -1.9272812   -1.8258550 
H     2.4046145   -1.0352661   -0.4551782 
H     2.4791395   -0.3580008   -2.0745782 
C     1.3313672   -2.2546894   -3.2662935 
O     0.3513163   -2.3204994   -4.2480955 
O     2.6556577   -2.4888054   -3.6137749 
H     2.6944063   -2.7030716   -4.6027770 
N     1.1955800   -3.0728638   -0.9274816 
H    -0.1296328   -1.7527138   -1.8674089 
H     0.5681143   -3.8637922   -1.2096943 
H     2.1764519   -3.4213314   -1.0669006 
