24
Energy =
C     0.3186437    2.4012915   -1.0235016 
C    -0.9894455    2.1952131   -0.7459351 
C    -1.4014577    0.9944743   -0.2783359 
C     1.2202009    1.4034801   -0.8393830 
C     0.8132411    0.1925253   -0.3654581 
C    -0.5061328   -0.0083657   -0.0915441 
O    -1.9105843    3.2201964   -0.9350330 
H    -2.3041057    3.1832119   -1.8691979 
H    -0.8518177   -0.9705301    0.2784199 
H     2.2673980    1.5804416   -1.0780124 
H     0.6364920    3.3706989   -1.3933298 
H    -2.4522423    0.8458794   -0.0535258 
C     1.8101386   -0.9314260   -0.1848503 
C     1.8592742   -1.8582139   -1.4119798 
H     1.5409117   -1.5325090    0.7122230 
H     2.8269082   -0.5229947    0.0158910 
C     2.3334724   -1.1210889   -2.6581159 
O     3.6066812   -0.5678505   -2.7036361 
O     1.4800352   -0.9501642   -3.7387638 
H     0.8598834   -0.1772644   -3.5472526 
N     2.7144728   -3.0121039   -1.0858961 
H     0.8291317   -2.2266669   -1.6284838 
H     2.6565251   -3.7070426   -1.8690503 
H     3.7183410   -2.7051661   -1.0505993 
