24
Energy =
C    -0.1442281    1.7005294    1.0015099 
C     0.4769997    2.7261287    0.3751689 
C     1.4321624    2.4757684   -0.5492073 
C     0.1935392    0.4182703    0.7109264 
C     1.1577602    0.1574239   -0.2163092 
C     1.7757751    1.1963620   -0.8451965 
O     0.1280970    4.0388855    0.6760656 
H     0.6812878    4.3888888    1.4505862 
H     2.5462077    1.0098482   -1.5893088 
H    -0.3144538   -0.3941418    1.2234358 
H    -0.9159119    1.9170618    1.7321520 
H     1.9155917    3.3071265   -1.0516951 
C     1.5391257   -1.2689700   -0.5537458 
C     0.9846423   -1.7198163   -1.9313875 
H     1.1957774   -1.9770057    0.2343881 
H     2.6509954   -1.3432886   -0.5547942 
C     1.6349771   -3.0249236   -2.4003620 
O     2.2438045   -3.8732789   -1.4826858 
O     1.5893933   -3.4089876   -3.7394238 
H     1.0600878   -2.7560060   -4.2998063 
N    -0.4970045   -1.7975675   -1.9215692 
H     1.2859419   -0.9618802   -2.6890248 
H    -0.8350037   -2.7625933   -2.1590272 
H    -0.9030914   -1.5817651   -0.9823046 
