24
Energy =
C    -0.4175864    2.3453876   -0.8336019 
C     0.3700757    2.8190646   -1.8355085 
C     1.4767356    2.1311944   -2.1989382 
C    -0.0919013    1.1912109   -0.1990840 
C     1.0289391    0.5038002   -0.5557689 
C     1.8078032    0.9761120   -1.5673439 
O     0.0651324    4.0064025   -2.5080863 
H    -0.7863324    4.4558609   -2.1890547 
H     2.6916294    0.4283558   -1.8834739 
H    -0.7384300    0.8108569    0.5888681 
H    -1.3122698    2.8842826   -0.5414282 
H     2.0899814    2.5153556   -3.0070211 
C     1.3782071   -0.7972235    0.1392608 
C     0.7331764   -2.0660512   -0.5006489 
H     1.0988978   -0.7078155    1.2141277 
H     2.4836877   -0.9199986    0.1499571 
C    -0.0111094   -2.9010828    0.5308310 
O     0.2014386   -4.2731144    0.5999623 
O    -0.9149796   -2.3047365    1.4049087 
H    -1.3296517   -3.0201043    1.9887077 
N    -0.1225094   -1.7252112   -1.6544149 
H     1.5617065   -2.7173665   -0.8643521 
H    -0.3860172   -2.6060070   -2.1587349 
H    -1.0203790   -1.3086786   -1.3095595 
