24
Energy =
C     2.2689337    2.2106635   -0.9964195 
C     1.0999748    2.8880148   -1.0740291 
C    -0.0664283    2.2585422   -0.7744194 
C     2.2936555    0.9096505   -0.6117127 
C     1.1346069    0.2705754   -0.3073388 
C    -0.0690817    0.9322696   -0.4296899 
O     1.1285394    4.2339100   -1.4546788 
H     0.2117878    4.6640699   -1.5135909 
H    -1.1310131    0.3310533   -0.0163938 
H     3.2452249    0.3887943   -0.5504184 
H     3.1894759    2.7298659   -1.2402694 
H    -1.0061473    2.7963221   -0.8157323 
C     1.1109284   -1.1878449    0.1131672 
C     0.2797358   -2.0599829   -0.8624668 
H     0.6720318   -1.2534689    1.1324712 
H     2.1414596   -1.6019699    0.1777822 
C    -1.0793155   -1.4420436   -1.1905282 
O    -1.2508389   -0.0494352   -1.1019427 
O    -2.1156431   -2.2152738   -1.6800366 
H    -1.9312025   -2.4418979   -2.6459563 
N     1.0854992   -2.3018153   -2.0713300 
H     0.0586316   -3.0340176   -0.3667367 
H     0.5898667   -2.9909582   -2.6844785 
H     1.1565266   -1.4092252   -2.6198746 
