24
Energy =
C     1.1163136    2.7037782   -1.0247275 
C     0.3645407    2.9204140    0.0791438 
C     0.0366764    1.8749921    0.8849102 
C     1.5456133    1.4528090   -1.3310796 
C     1.2279658    0.4057345   -0.5222207 
C     0.4642045    0.6225378    0.5843805 
O    -0.0603440    4.2231300    0.3588577 
H    -0.6184060    4.3034466    1.2020105 
H     0.1831876   -0.2104263    1.2266699 
H     2.1417411    1.2971958   -2.2265743 
H     1.3671532    3.5456938   -1.6612094 
H    -0.5717287    2.0370310    1.7682280 
C     1.6831116   -0.9951058   -0.8665088 
C     0.7111967   -1.8792599   -1.7308758 
H     1.9326617   -1.5117610    0.0899073 
H     2.6637201   -0.9314319   -1.3898098 
C     0.4880124   -3.2358124   -1.0792202 
O    -0.1083847   -3.3268665    0.1732109 
O     0.9579110   -4.3930932   -1.6894615 
H     1.9509931   -4.4719452   -1.5293923 
N    -0.5946674   -1.2612316   -2.0676743 
H     1.2444720   -2.1138304   -2.6824426 
H    -0.7516774   -0.2946078   -1.7138739 
H    -0.7198580   -1.2265937   -3.1066528 
