24
Energy =
C     1.3893869    2.7455362   -0.2269388 
C     0.2137153    2.9774739   -0.8650561 
C    -0.5152696    1.9351953   -1.3182737 
C     1.8296807    1.4748123   -0.0485705 
C     1.1065219    0.4150747   -0.5132118 
C    -0.0819904    0.6609988   -1.1436890 
O    -0.2694648    4.2743802   -1.0660312 
H     0.3334716    5.0022762   -0.6978388 
H    -0.7062508   -0.1367854   -1.5225397 
H     2.7712962    1.3143968    0.4724773 
H     1.9796585    3.5761902    0.1452081 
H    -1.4546976    2.1352691   -1.8223110 
C     1.6481659   -0.9882566   -0.2524819 
C     1.0412071   -2.1486051   -1.0904128 
H     1.5185010   -1.2228767    0.8279847 
H     2.7498796   -0.9532212   -0.4182682 
C     2.0907494   -3.2248761   -1.3771019 
O     1.7925283   -4.5741249   -1.2356997 
O     3.3300510   -2.8687058   -1.8966713 
H     3.2292104   -2.6589298   -2.8790828 
N    -0.1147190   -2.7021822   -0.3581207 
H     0.7298360   -1.7891824   -2.0958069 
H    -0.8812788   -1.9965252   -0.2852695 
H    -0.5098020   -3.5196418   -0.8845843 
