24
Energy =
C     0.3375866    2.4582552   -1.2819584 
C     0.1916197    2.8139736    0.0148816 
C     0.6282837    1.9911542    0.9956224 
C     0.9138627    1.2716052   -1.6030505 
C     1.3502753    0.4342583   -0.6207869 
C     1.2054596    0.8028344    0.6829594 
O    -0.3997955    4.0307143    0.3397316 
H    -1.4028285    3.9241198    0.4447179 
H     1.5504667    0.1537034    1.4834360 
H     1.0248196    0.9979516   -2.6495923 
H    -0.0076143    3.1336597   -2.0575439 
H     0.5143811    2.2948705    2.0306604 
C     1.9861221   -0.8911703   -0.9811477 
C     0.9407960   -1.9335350   -1.4521848 
H     2.5644324   -1.3081876   -0.1253308 
H     2.7358401   -0.7159185   -1.7873078 
C     1.6382946   -3.1137908   -2.1138864 
O     2.4349026   -3.9682976   -1.3641587 
O     1.5173481   -3.3206624   -3.4802682 
H     0.6383433   -3.7827663   -3.6643556 
N     0.0427751   -2.3426704   -0.3433950 
H     0.3160177   -1.4789738   -2.2546090 
H     0.0785859   -3.3794995   -0.1821504 
H     0.3186183   -1.9138210    0.5698259 
