24
Energy =
C     1.2965200    2.6175051   -1.3247865 
C     0.3887095    3.0194982   -0.4050937 
C    -0.1256174    2.1283896    0.4732969 
C     1.6901033    1.3187734   -1.3732100 
C     1.1799903    0.4177138   -0.4887421 
C     0.2633182    0.8286039    0.4319004 
O    -0.0125570    4.3506981   -0.3596686 
H    -0.8170061    4.5037736   -0.9578231 
H    -0.1669132    0.1152862    1.1326910 
H     2.4147589    1.0073918   -2.1212219 
H     1.7053494    3.3450041   -2.0180510 
H    -0.8494324    2.4653252    1.2076998 
C     1.5972479   -1.0350526   -0.5465231 
C     0.7320210   -2.0013936   -1.4358396 
H     1.6482520   -1.4120982    0.5019044 
H     2.6543264   -1.0869084   -0.8918769 
C     0.3165442   -3.2358613   -0.6495071 
O    -0.4914898   -3.1165827    0.4753622 
O     0.8126702   -4.4876013   -0.9951927 
H     1.7568864   -4.5760254   -0.6506856 
N    -0.4561443   -1.3918549   -2.0818964 
H     1.4029943   -2.3956763   -2.2353297 
H    -0.6077940   -0.3777978   -1.9020315 
H    -0.4023562   -1.5111999   -3.1207343 
