24
Energy =
C    -0.6188887    1.5990959    0.6867577 
C    -0.3693341    2.6180299   -0.1674515 
C     0.5922067    2.4907642   -1.1105624 
C     0.1001863    0.4505240    0.6068188 
C     1.0774428    0.3192751   -0.3333609 
C     1.3154175    1.3451564   -1.1972610 
O    -1.1097657    3.7928368   -0.0836264 
H    -0.6640320    4.4528881    0.5440754 
H     2.0821227    1.2547036   -1.9630821 
H    -0.1179805   -0.3650732    1.2925997 
H    -1.4030584    1.7094246    1.4281385 
H     0.7717927    3.3109970   -1.7973746 
C     1.8676771   -0.9657699   -0.4429933 
C     1.3011115   -1.9073739   -1.5255189 
H     1.8805539   -1.5081542    0.5301326 
H     2.9301886   -0.7231128   -0.6701889 
C     2.2588594   -3.0574760   -1.8032491 
O     2.2310047   -3.6944487   -3.0377852 
O     3.1548117   -3.4994619   -0.8362079 
H     3.6665652   -4.2883449   -1.2101618 
N    -0.0209238   -2.4005433   -1.0978466 
H     1.2097476   -1.3538186   -2.4894127 
H    -0.7206132   -1.6288209   -1.2032786 
H    -0.3364042   -3.1520551   -1.7585702 
