24
Energy =
C     0.2208776    2.3451413   -0.8837853 
C    -1.0860620    2.0702800   -0.6275975 
C    -1.4408810    0.8307171   -0.2199846 
C     1.1638566    1.3818455   -0.7275002 
C     0.8085165    0.1357591   -0.3088694 
C    -0.5025254   -0.1368167   -0.0629920 
O    -2.0828927    3.0399921   -0.7756056 
H    -1.7390481    3.9387151   -1.0968062 
H    -0.8081899   -1.1294715    0.2573822 
H     2.2040681    1.6137823   -0.9475059 
H     0.5150065    3.3342465   -1.2181654 
H    -2.4872974    0.6234471   -0.0250603 
C     1.8542950   -0.9476917   -0.1583943 
C     1.9785796   -1.8072345   -1.4297412 
H     1.5926302   -1.6062856    0.6995130 
H     2.8443237   -0.5026079    0.0910298 
C     2.4826384   -1.0022325   -2.6191754 
O     3.6590143   -0.2640965   -2.5281710 
O     1.7768072   -1.0176833   -3.8150008 
H     2.2571907   -0.4369313   -4.4902284 
N     2.8460831   -2.9588114   -1.1269150 
H     0.9663204   -2.1807140   -1.7137102 
H     2.8611566   -3.6010879   -1.9560414 
H     3.8331141   -2.6262859   -0.9983076 
