24
Energy =
C     2.1105858    2.4400196   -1.3756302 
C     0.9590625    2.8458086   -1.9471810 
C    -0.1015795    2.0141004   -1.9874483 
C     2.2014582    1.2002194   -0.8337163 
C     1.1380598    0.3376341   -0.8576385 
C    -0.0219101    0.7701373   -1.4479612 
O     0.8676859    4.1172609   -2.5032765 
H     0.5401462    4.7878451   -1.8164521 
H    -0.9075907    0.1743160   -1.5233685 
H     3.1437393    0.9014532   -0.3786862 
H     2.9603896    3.1148327   -1.3595160 
H    -1.0168603    2.3522216   -2.4622314 
C     1.3792136   -1.0337486   -0.2022324 
C     0.3586102   -2.2277925   -0.1326533 
H     1.7299434   -0.8154791    0.8324536 
H     2.2862611   -1.4430179   -0.7031984 
C     0.1236667   -2.6819810    1.3054702 
O     0.8997956   -3.6986121    1.8428337 
O    -0.7938987   -2.0310700    2.1206929 
H    -0.3758781   -1.1828821    2.4728353 
N    -0.9000083   -2.0019421   -0.8591126 
H     0.8643143   -3.1047571   -0.6052905 
H    -1.3279659   -2.9303319   -1.0927119 
H    -1.5925201   -1.5419500   -0.2176290 
