24
Energy =
C     2.4403846    2.1514267   -0.0643371 
C     1.5708023    2.8817034   -0.8056800 
C     0.4422751    2.3088932   -1.2850955 
C     2.1801341    0.8435986    0.2049806 
C     1.0494363    0.2624650   -0.2815930 
C     0.1865147    1.0072654   -1.0100585 
O     1.8432838    4.2171437   -1.0817271 
H     1.4584775    4.8186980   -0.3614629 
H    -0.7432874    0.3904234   -1.3898866 
H     2.8796766    0.2722243    0.8093112 
H     3.3436048    2.6229571    0.3086888 
H    -0.2441825    2.8917039   -1.8895493 
C     0.6895923   -1.1803187    0.0408128 
C     0.0941516   -1.9959055   -1.1525080 
H    -0.0464408   -1.1724068    0.8754664 
H     1.5876659   -1.7180799    0.4175963 
C    -1.2982036   -1.5245828   -1.6377175 
O    -1.6157772   -0.1707203   -1.7486659 
O    -2.2670103   -2.4409861   -2.0322950 
H    -1.8943613   -3.3729764   -2.1310297 
N     1.0569322   -2.0682337   -2.2642959 
H    -0.0697300   -3.0291661   -0.7717438 
H     1.1778484   -1.1215508   -2.6979138 
H     1.9953188   -2.3706207   -1.9115878 
