24
Energy =
C     1.3798275    2.5705137   -0.6640665 
C     0.1373070    2.7961740   -0.1786595 
C    -0.6146296    1.7624376    0.2634287 
C     1.8805081    1.3089744   -0.6979445 
C     1.1355183    0.2646408   -0.2386528 
C    -0.1207270    0.4982673    0.2335588 
O    -0.3721967    4.0903451   -0.1449828 
H    -0.1508441    4.5396671    0.7365983 
H    -0.7408044   -0.3272120    0.5742247 
H     2.8772602    1.1426613   -1.0994650 
H     1.9648307    3.4069141   -1.0315631 
H    -1.6169543    1.9559468    0.6299839 
C     1.6816336   -1.1454221   -0.2952691 
C     1.2480995   -1.8685797   -1.5833988 
H     1.3403937   -1.7295275    0.5885316 
H     2.7931252   -1.1189321   -0.2328354 
C     2.0501168   -3.1448049   -1.7768839 
O     2.8818597   -3.2888018   -2.8792168 
O     1.9789506   -4.1680691   -0.8402716 
H     2.5787848   -4.9245425   -1.1457124 
N    -0.2037120   -2.1262118   -1.5301873 
H     1.4821150   -1.2185672   -2.4601735 
H    -0.5192489   -2.4564937   -2.4733613 
H    -0.3895974   -2.9215881   -0.8703250 
