24
Energy =
C     1.3698098    2.4801251   -0.7446294 
C     0.1320437    2.7966850   -0.2997009 
C    -0.7080873    1.8208081    0.1146984 
C     1.7781060    1.1857523   -0.7617697 
C     0.9428698    0.1986914   -0.3324535 
C    -0.3085462    0.5236037    0.0973701 
O    -0.2814770    4.1251870   -0.2768309 
H    -0.0717432    4.5511082    0.6190025 
H    -0.9973948   -0.2508075    0.4246694 
H     2.7725266    0.9467563   -1.1336374 
H     2.0265391    3.2695916   -1.0943494 
H    -1.7038032    2.0884521    0.4509242 
C     1.3834171   -1.2487166   -0.3722868 
C     0.9795662   -1.9371845   -1.6909026 
H     0.9387615   -1.7948712    0.4876757 
H     2.4872962   -1.3267808   -0.2412645 
C     1.7216085   -1.3418108   -2.8809621 
O     1.0354336   -1.0476811   -4.0508441 
O     3.0981842   -1.1591956   -2.8407150 
H     3.5328301   -2.0378912   -3.0816767 
N     1.2445842   -3.3807248   -1.5625267 
H    -0.1077943   -1.7693029   -1.8798191 
H     0.5921069   -3.7893861   -0.8518972 
H     0.9998560   -3.8537385   -2.4666981 
