24
Energy =
C    -0.4112154    0.4794722    1.4314470 
C    -0.8802529    1.6925558    1.0618669 
C    -0.3521888    2.3237881   -0.0113514 
C     0.5825381   -0.1126309    0.7216323 
C     1.1113108    0.5092857   -0.3705231 
C     0.6411965    1.7378464   -0.7276873 
O    -1.8993858    2.2961313    1.7919822 
H    -2.8054398    2.0425831    1.4131196 
H     1.0559446    2.2621184   -1.5841017 
H     0.9478647   -1.0883778    1.0331369 
H    -0.8375811   -0.0112810    2.2996049 
H    -0.7299776    3.3022367   -0.2874935 
C     2.2173871   -0.1542540   -1.1701296 
C     1.7106158   -1.2357409   -2.1621380 
H     2.9397706   -0.6247159   -0.4634644 
H     2.8024362    0.6072602   -1.7310135 
C     1.0057460   -2.3803375   -1.4511868 
O    -0.3781613   -2.5245151   -1.4940775 
O     1.7549787   -3.2627341   -0.6787664 
H     1.1395277   -3.9677398   -0.2927917 
N     0.8758203   -0.6569948   -3.2367261 
H     2.6131442   -1.7076876   -2.6161947 
H     0.7486711    0.3752051   -3.1388555 
H     1.3263600   -0.8224255   -4.1669078 
