24
Energy =
C    -0.5847564    2.0896241   -0.2765374 
C     0.3166567    2.9790233   -0.7512640 
C     1.5788166    2.5656292   -1.0460011 
C    -0.2348151    0.7920013   -0.0883844 
C     1.0278361    0.3738599   -0.3773400 
C     1.9328931    1.2678288   -0.8624473 
O    -0.0800966    4.3078314   -0.9289654 
H     0.6494118    4.9115817   -1.2920720 
H     2.9436244    0.9522561   -1.1073240 
H    -0.9721310    0.0725877    0.2668487 
H    -1.5913665    2.4295569   -0.0569294 
H     2.3069681    3.2716400   -1.4309762 
C     1.4050708   -1.0790281   -0.1649097 
C     0.7781139   -2.0783307   -1.1883312 
H     1.1125989   -1.3428253    0.8778118 
H     2.5113150   -1.1944343   -0.1830609 
C     0.1600396   -3.2720134   -0.4688403 
O    -0.8507176   -3.0867978    0.4671228 
O     0.6332110   -4.5554254   -0.7095147 
H     1.4873410   -4.6959422   -0.1909147 
N    -0.2013997   -1.4115832   -2.0713450 
H     1.5976372   -2.5018377   -1.8162978 
H     0.3104507   -0.8042853   -2.7549231 
H    -0.7013887   -2.1311347   -2.6491853 
