24
Energy =
C    -0.2326012    2.4065762   -0.5583724 
C     0.4564382    2.8667382   -1.6269815 
C     1.4736126    2.1249445   -2.1419951 
C     0.0871157    1.2143018    0.0035954 
C     1.1120051    0.4724129   -0.5007648 
C     1.7979006    0.9308959   -1.5837359 
O     0.0976895    4.1012921   -2.1766300 
H     0.6528335    4.3721562   -2.9811777 
H     2.6017157    0.3394914   -2.0147887 
H    -0.4867664    0.8511733    0.8531982 
H    -1.0472711    3.0026916   -0.1620808 
H     2.0258301    2.4819019   -3.0047866 
C     1.4543063   -0.8716976    0.1110584 
C     0.7202716   -2.0867790   -0.5395253 
H     1.2603613   -0.8238484    1.2070778 
H     2.5529944   -1.0309985    0.0375978 
C     0.0230502   -2.9595884    0.5090508 
O    -0.7297771   -2.3590435    1.5122693 
O     0.0826096   -4.3526523    0.4611367 
H     0.5899140   -4.6896324   -0.3431899 
N    -0.2126438   -1.6580893   -1.5988712 
H     1.5062692   -2.7158451   -1.0145508 
H    -0.5596803   -2.5000881   -2.1175336 
H    -1.0576982   -1.2169279   -1.1617476 
