24
Energy =
C     0.1627968    2.2827172    0.4992921 
C    -0.1709078    2.9457007   -0.6312838 
C     0.2114432    2.4505625   -1.8387868 
C     0.8797657    1.1326218    0.4356893 
C     1.2780264    0.6401060   -0.7699133 
C     0.9293285    1.3009100   -1.9081327 
O    -0.9073678    4.1293254   -0.5239873 
H    -1.1399055    4.5516614   -1.4164417 
H     1.2087852    0.9029320   -2.8807418 
H     1.1206625    0.6024016    1.3533010 
H    -0.1590062    2.6804315    1.4557451 
H    -0.0630794    2.9674094   -2.7522105 
C     2.0520654   -0.6619357   -0.8498122 
C     1.1555932   -1.9428612   -0.9710424 
H     2.6893065   -0.7593736    0.0573173 
H     2.7840821   -0.5805632   -1.6806765 
C    -0.3422561   -1.6689019   -0.8994185 
O    -1.0560199   -1.2651877   -2.0242754 
O    -0.9965042   -1.7377867    0.3260301 
H    -1.9725114   -1.5120665    0.1815134 
N     1.4845902   -2.7428119   -2.1738212 
H     1.3518793   -2.5628341   -0.0646110 
H     2.2580839   -2.3459917   -2.7533262 
H     1.7722760   -3.7101724   -1.8944165 
