24
Energy =
C     1.2321653    2.4991273   -0.6855961 
C    -0.0053439    2.7462136   -0.1980103 
C    -0.7824869    1.7232277    0.2255559 
C     1.7037348    1.2273160   -0.7364193 
C     0.9324823    0.1930420   -0.2986147 
C    -0.3195805    0.4480984    0.1742340 
O    -0.4837493    4.0515750   -0.1404926 
H    -0.2706904    4.4729856    0.7567223 
H    -0.9575493   -0.3655187    0.5095162 
H     2.6965987    1.0435780   -1.1422239 
H     1.8375227    3.3257218   -1.0422880 
H    -1.7792266    1.9356931    0.5964674 
C     1.4433481   -1.2299074   -0.3770136 
C     1.0438205   -1.9144510   -1.7069478 
H     1.0365992   -1.8125838    0.4791892 
H     2.5528148   -1.2475860   -0.2694267 
C     1.6809792   -1.2225457   -2.9066716 
O     3.0584921   -1.0570569   -2.9730150 
O     0.8955552   -0.7933657   -3.9663162 
H     0.6880661   -1.5849520   -4.5573249 
N     1.3454605   -3.3673467   -1.6566509 
H    -0.0550671   -1.7937631   -1.8512855 
H     2.0093965   -3.6465242   -2.4204190 
H     1.8224354   -3.6479583   -0.7671312 
