24
Energy =
C    -0.8550953    2.0053921   -0.4887609 
C    -0.2162481    2.5530237    0.5684604 
C     1.0253104    2.1341608    0.8981277 
C    -0.2595189    1.0233445   -1.2133659 
C     0.9798779    0.5673465   -0.8716337 
C     1.6273281    1.1527760    0.1794216 
O    -0.8296707    3.5600824    1.3064333 
H    -1.3656722    3.1662644    2.0724285 
H     2.6308039    0.8400675    0.4571872 
H    -0.7848692    0.6186254   -2.0698602 
H    -1.8427393    2.3680441   -0.7540528 
H     1.5345082    2.5977295    1.7365333 
C     1.6867766   -0.5082459   -1.6902392 
C     0.9447151   -1.8659749   -1.8667465 
H     2.6942017   -0.7211957   -1.2670579 
H     1.8778723   -0.0805641   -2.6989051 
C     0.7347694   -2.7425577   -0.6160091 
O     0.3136351   -4.0517647   -0.8139703 
O     1.0000684   -2.3456056    0.6944488 
H     1.2240356   -1.3758710    0.7745856 
N    -0.3015119   -1.6595659   -2.6288897 
H     1.6226376   -2.5049360   -2.4833524 
H    -0.0631973   -1.4135483   -3.6194512 
H    -0.8340601   -2.5637836   -2.6862723 
