24
Energy =
C    -1.1783789    1.6102685    0.0275060 
C    -1.0777467    2.3711708   -1.0867804 
C     0.0086643    2.2624783   -1.8851393 
C    -0.1936339    0.7311275    0.3446671 
C     0.9054224    0.6193987   -0.4518368 
C     0.9983433    1.3873765   -1.5738419 
O    -2.0898168    3.2694229   -1.4091614 
H    -2.7900521    2.8238026   -1.9923809 
H     1.8601531    1.2957543   -2.2332535 
H    -0.2920227    0.1196923    1.2379457 
H    -2.0533078    1.7116552    0.6607951 
H     0.0756606    2.8789944   -2.7751166 
C     1.9908832   -0.3811428   -0.1195248 
C     1.7081424   -1.7626573   -0.7554402 
H     2.0744640   -0.4865287    0.9848918 
H     2.9783926   -0.0017225   -0.4693327 
C     1.6616379   -1.6910484   -2.2754494 
O     0.4974969   -2.0277347   -2.9548876 
O     2.7586302   -1.2316715   -2.9970477 
H     3.3957612   -2.0034124   -3.1350298 
N     2.7127665   -2.7378146   -0.2954000 
H     0.6974044   -2.1118059   -0.4393931 
H     3.6772826   -2.3803197   -0.4995589 
H     2.6392654   -2.8562906    0.7427542 
