24
Energy =
C    -0.2310458    0.7090192    1.4670915 
C    -0.6668970    1.8888246    0.9690620 
C    -0.2106537    2.3291998   -0.2256902 
C     0.6734141   -0.0307558    0.7759955 
C     1.1448974    0.4099364   -0.4242495 
C     0.6923208    1.5943134   -0.9236744 
O    -1.5919526    2.6455087    1.6809522 
H    -1.1215545    3.2985361    2.2975970 
H     1.0439927    1.9534955   -1.8878770 
H     1.0097520   -0.9808958    1.1862442 
H    -0.6176600    0.3598701    2.4186859 
H    -0.5809304    3.2695298   -0.6197315 
C     2.1416196   -0.4199368   -1.2085649 
C     1.4725557   -1.4664507   -2.1245300 
H     2.8335998   -0.9356455   -0.5042393 
H     2.7801068    0.2436064   -1.8324734 
C     0.7000466   -2.5174366   -1.3358995 
O     1.3283676   -3.2184377   -0.3137565 
O    -0.6220278   -2.8128944   -1.6415301 
H    -0.9426709   -3.5390628   -1.0134236 
N     0.6557036   -0.7824788   -3.1452782 
H     2.2861280   -2.0298664   -2.6357069 
H     0.3486441   -1.4954468   -3.8495486 
H    -0.2377113   -0.4594309   -2.6995010 
