24
Energy =
C     0.3956640    2.2638613    0.3206897 
C     0.1458433    2.8659900   -0.8646685 
C     0.4811922    2.2360547   -2.0224401 
C     0.9823814    1.0412137    0.3605655 
C     1.3315175    0.4118924   -0.7952060 
C     1.0676335    1.0128275   -1.9880454 
O    -0.4570739    4.1279661   -0.8650031 
H    -0.6266201    4.5048726   -1.7913042 
H     1.3114985    0.5104885   -2.9206718 
H     1.1587324    0.5647770    1.3216351 
H     0.1129708    2.7697723    1.2375813 
H     0.2745419    2.7052276   -2.9783695 
C     1.9545149   -0.9696872   -0.7565000 
C     0.9252018   -2.1451745   -0.7707946 
H     2.5878119   -1.0584072    0.1545300 
H     2.6715275   -1.0638352   -1.6022425 
C    -0.5389139   -1.7149769   -0.7262276 
O    -1.2093200   -1.6591704    0.4924687 
O    -1.1938272   -1.2926136   -1.8797668 
H    -2.1431932   -1.0415380   -1.6402334 
N     1.1860872   -3.0401069   -1.9111577 
H     1.0712974   -2.7375710    0.1613320 
H     1.0605780   -2.5110571   -2.8076441 
H     2.1724064   -3.3895237   -1.8736316 
