24
Energy =
C     1.0251188    2.7676202   -0.5986035 
C    -0.1692935    2.8054017    0.0508848 
C    -0.7191122    1.6573934    0.5067914 
C     1.6630738    1.5841125   -0.7866733 
C     1.1131734    0.4280931   -0.3219815 
C    -0.0843333    0.4717857    0.3240446 
O    -0.8525205    4.0069792    0.2609567 
H    -0.3784341    4.8223153   -0.1119029 
H    -0.5458687   -0.4495467    0.6735590 
H     2.6144929    1.5709199   -1.3120158 
H     1.4715710    3.6836075   -0.9705490 
H    -1.6771146    1.7012670    1.0138738 
C     1.8141397   -0.9018049   -0.5263088 
C     1.1422364   -1.8539403   -1.5715957 
H     1.8919703   -1.3853066    0.4735571 
H     2.8707483   -0.7331902   -0.8301968 
C     0.8489985   -3.2390270   -0.9821594 
O     1.6571587   -3.7621085    0.0202721 
O    -0.1214409   -4.0621539   -1.5409531 
H     0.2436274   -4.4713401   -2.3877175 
N    -0.0613222   -1.2293638   -2.1604123 
H     1.8790159   -2.0446487   -2.3855036 
H     0.2337524   -0.4447315   -2.7886578 
H    -0.5615000   -1.9158449   -2.7753824 
