24
Energy =
C    -1.3570616    1.4975280   -0.8833337 
C    -1.1919131    1.7951862    0.4251645 
C    -0.0014781    1.5347194    1.0285998 
C    -0.3420408    0.9461355   -1.5962798 
C     0.8555096    0.6941076   -1.0011733 
C     1.0169063    0.9843994    0.3199151 
O    -2.2609755    2.3639689    1.1240153 
H    -2.0667849    2.5352188    2.1049251 
H     1.9561123    0.7653101    0.8231802 
H    -0.4946876    0.6876752   -2.6409747 
H    -2.3165381    1.6993155   -1.3477785 
H     0.1371584    1.7590413    2.0809467 
C     1.9814540    0.0562561   -1.7908347 
C     1.8106877   -1.4699688   -1.9378380 
H     2.9602955    0.2683580   -1.3024207 
H     2.0396801    0.5212095   -2.7991264 
C     1.7584934   -2.1592699   -0.5710921 
O     2.9544612   -2.4957499    0.0507398 
O     0.5635832   -2.3799342    0.1125523 
H    -0.2241110   -2.0639749   -0.4341825 
N     0.6363201   -1.7535382   -2.7856875 
H     2.7246253   -1.8774300   -2.4322699 
H     0.8520804   -1.4729522   -3.7728038 
H     0.4904082   -2.7912135   -2.8219497 
