24
Energy =
C     1.9259232    2.3295705   -1.0677095 
C     1.3136906    2.9115537   -0.0114032 
C     0.5927724    2.1592682    0.8511621 
C     1.8328433    0.9884048   -1.2559535 
C     1.1157834    0.2232717   -0.3874045 
C     0.4909328    0.8175035    0.6673703 
O     1.4211607    4.2851064    0.1866651 
H     2.2099448    4.4987171    0.7862659 
H    -0.0933485    0.2282569    1.3682164 
H     2.3206462    0.5341520   -2.1154873 
H     2.4831758    2.9471997   -1.7635153 
H     0.0953113    2.6446425    1.6834109 
C     1.0051559   -1.2709190   -0.6099441 
C     0.0559439   -1.6951744   -1.7726781 
H     0.6851638   -1.7769259    0.3275339 
H     2.0317775   -1.6651014   -0.7897523 
C    -0.7006076   -0.5453187   -2.4549336 
O    -0.3159007   -0.1108765   -3.7176111 
O    -1.7923001    0.0686759   -1.8419335 
H    -1.9148256   -0.2433474   -0.8924224 
N     0.8208752   -2.5173082   -2.7301740 
H    -0.7458381   -2.3370860   -1.3419100 
H     0.1852599   -2.8447861   -3.4981364 
H     1.5370893   -1.9126875   -3.2017646 
