24
Energy =
C     1.7945951    1.6374055    1.1274028 
C     1.7829989    2.7496976    0.3584215 
C     1.6451389    2.6327180   -0.9894741 
C     1.6693199    0.4096848    0.5633697 
C     1.5292715    0.2869796   -0.7851894 
C     1.5191871    1.4068402   -1.5589996 
O     1.9155664    3.9976779    0.9772287 
H     1.8948297    4.7829457    0.3358873 
H     1.4119609    1.3282366   -2.6378093 
H     1.6826990   -0.4707254    1.2001262 
H     1.9056136    1.7428480    2.2009827 
H     1.6359567    3.5197311   -1.6133994 
C     1.3813657   -1.0772011   -1.4236133 
C    -0.0805867   -1.3692042   -1.8531463 
H     1.7342523   -1.8824189   -0.7384574 
H     2.0595431   -1.1275566   -2.3072080 
C    -0.1245003   -2.5654957   -2.8095216 
O    -0.0729769   -3.8566940   -2.2986431 
O    -0.1338381   -2.3949017   -4.1945753 
H    -0.1348091   -1.4256404   -4.4715604 
N    -0.9637940   -1.5391297   -0.6720814 
H    -0.4685126   -0.5027370   -2.4329097 
H    -1.4119402   -2.4884030   -0.6523582 
H    -0.4430761   -1.4586625    0.2313485 
