27
Energy =
C    -1.5117153    1.8059244   -1.4457468 
C    -0.8063340    0.7296104   -1.8984752 
C     0.4376129    0.5297794   -1.4122408 
C    -0.9510252    2.6531410   -0.5256250 
C     0.3045536    2.4299754   -0.0523606 
C     0.9829376    1.3488671   -0.5125953 
N     1.3366852   -0.5143534   -1.7600350 
C     2.2157489    0.9138103   -0.2097873 
C     2.4680776   -0.1854606   -0.9409767 
H     1.2065895   -1.3087542   -2.4266704 
C     3.1888888    1.5476178    0.7594600 
C     3.9830713    2.7094513    0.1161044 
H     3.8714053    0.7669199    1.1596262 
H     2.6261456    1.9189780    1.6472976 
C     5.4957012    2.5255310    0.2960970 
N     3.4941517    3.9767609    0.7047151 
H     3.8231892    2.7267844   -0.9909648 
H     3.8623720    4.7660443    0.1254432 
H     2.4155632    4.0170125    0.6501971 
H    -2.5148157    1.9982260   -1.8172259 
H    -1.2245785    0.0489583   -2.6321032 
H    -1.4927896    3.5177490   -0.1628162 
H     0.7405023    3.1444156    0.6680590 
H     3.4030329   -0.7413381   -0.9270511 
O     6.3562854    2.5898004   -0.7965622 
O     6.0336736    2.2812239    1.5530662 
H     6.3689168    3.1736108    1.8800807 
