27
Energy =
C    -1.1156135    2.5179236    0.9280057 
C    -1.0566491    1.1594997    0.8304305 
C     0.0687518    0.6007377    0.3383583 
C    -0.0542492    3.2841616    0.5327129 
C     1.0735923    2.6977825    0.0381806 
C     1.1115787    1.3428983   -0.0456381 
N     0.3235868   -0.7862057    0.1518752 
C     2.0774006    0.5318426   -0.4963752 
C     1.6666221   -0.7573919   -0.3741672 
H    -0.2983507   -1.6122048    0.3011447 
C     3.4287997    0.8794078   -1.0895185 
C     4.5793977    0.1023579   -0.3929957 
H     3.6254331    1.9685224   -1.0205164 
H     3.4114099    0.6166868   -2.1692144 
C     4.2550012   -1.3913390   -0.1760567 
N     4.8886156    0.7783440    0.8778662 
H     5.4717603    0.1473800   -1.0581625 
H     5.5197956    0.1752590    1.4584028 
H     5.4195121    1.6585753    0.6812741 
H    -2.0099909    2.9930937    1.3227476 
H    -1.8894656    0.5371001    1.1396129 
H    -0.1091199    4.3668644    0.6149125 
H     1.9129139    3.3113333   -0.2715031 
H     2.2929441   -1.7056301   -0.9675588 
O     2.9132256   -1.7946949   -0.0010927 
O     5.2556026   -2.3513715   -0.0697564 
H     6.1758193   -1.9437593   -0.1371197 
