27
Energy =
C    -1.4738168    1.8189915   -0.6250990 
C    -1.1674703    0.5318380   -0.2958682 
C     0.1302803    0.2110529   -0.1102781 
C    -0.4814673    2.7500628   -0.7627142 
C     0.8227309    2.4007791   -0.5692959 
C     1.1033820    1.1143241   -0.2398577 
N     0.6609001   -1.0638402    0.2259183 
C     2.2861142    0.5237041   -0.0055150 
C     2.0638315   -0.7731925    0.2730317 
H     0.1595130   -1.9665976    0.3936752 
C     3.6558232    1.1690666   -0.0635839 
C     4.2560599    1.3196430   -1.5047987 
H     4.3275661    0.5985648    0.6116008 
H     3.5902595    2.1747530    0.4067432 
C     3.3597491    0.8233911   -2.6387759 
N     5.6072457    0.7218195   -1.6050079 
H     4.3380567    2.4148122   -1.7027487 
H     6.3087605    1.4561038   -1.8611849 
H     5.9438355    0.2663877   -0.7271668 
H    -2.5103339    2.1044463   -0.7863381 
H    -1.9419430   -0.2201158   -0.1891822 
H    -0.7317069    3.7719634   -1.0371157 
H     1.6112890    3.1367741   -0.6944240 
H     2.8370668   -1.5067335    0.4912118 
O     2.4470105    1.6942852   -3.2219457 
O     3.3859448   -0.4996266   -3.0636829 
H     2.8163743   -1.0514619   -2.4436145 
