27
Energy =
C    -1.5422928    1.5597286   -0.2776975 
C    -1.1296648    0.2670515   -0.1449437 
C     0.1958727    0.0228014   -0.0766469 
C    -0.6256635    2.5725579   -0.3438031 
C     0.7088945    2.2997258   -0.2744296 
C     1.0959184    1.0058217   -0.1362347 
N     0.8308663   -1.2425045    0.0449375 
C     2.3285618    0.4804650   -0.0543159 
C     2.2124668   -0.8561951    0.0394684 
H     0.4047765   -2.1936043    0.1319619 
C     3.6443485    1.2336022   -0.1028294 
C     4.1522855    1.5809207   -1.5448686 
H     4.3917651    0.6515168    0.4754229 
H     3.5298542    2.1762901    0.4755288 
C     3.1853199    1.2076682   -2.6659029 
N     5.4945542    1.0178649   -1.8147210 
H     4.2199593    2.6930849   -1.5940514 
H     6.1612795    1.7859116   -2.0638908 
H     5.9118283    0.5051172   -1.0056032 
H    -2.6038848    1.7849378   -0.3409728 
H    -1.8432124   -0.5487941   -0.1016211 
H    -0.9615369    3.5996802   -0.4628714 
H     1.4359105    3.1030704   -0.3453512 
H     3.0475231   -1.5526012    0.0661533 
O     2.9568638   -0.1222937   -3.0002499 
O     2.4887769    2.2016789   -3.3440806 
H     3.0976557    2.6000964   -4.0437518 
