27
Energy =
C    -0.3833604    3.5089080    0.4959768 
C    -0.7437873    2.1975943    0.5894054 
C     0.1592194    1.2583081    0.2384262 
C     0.8649521    3.8509633    0.0550449 
C     1.7618255    2.8846499   -0.2945250 
C     1.3824770    1.5848678   -0.1890811 
N    -0.0233103   -0.1521442    0.2579835 
C     2.0559998    0.4625097   -0.4732577 
C     1.2674904   -0.6097186   -0.1963364 
H    -0.8698759   -0.7194613    0.4876789 
C     3.4548995    0.2955532   -1.0367593 
C     4.3056514   -0.6828987   -0.1786036 
H     3.9735471    1.2726010   -1.1106943 
H     3.3659900   -0.1073223   -2.0687707 
C     3.5369074   -1.9550419    0.2042160 
N     4.7883475    0.0376784    1.0124641 
H     5.1748623   -1.0268655   -0.7860215 
H     5.3080342   -0.6240024    1.6359531 
H     5.4836379    0.7633676    0.7201223 
H    -1.0915676    4.2851543    0.7740815 
H    -1.7299620    1.9092496    0.9370781 
H     1.1444818    4.8992065   -0.0157244 
H     2.7510337    3.1631216   -0.6418294 
H     1.5740926   -1.7816141   -0.6210960 
O     2.1376523   -1.9105384    0.3765334 
O     4.2028271   -3.1404500    0.4595455 
H     4.6477447   -3.0752503    1.3628034 
