27
Energy =
C    -1.6819207    2.5035408   -0.7997707 
C    -1.3230306    1.3082386   -1.3510303 
C    -0.0773302    0.8444224   -1.1171590 
C    -0.7907289    3.2076285   -0.0363507 
C     0.4636740    2.7160563    0.1853767 
C     0.7926989    1.5203982   -0.3673082 
N     0.4994532   -0.3618579   -1.6007783 
C     1.9436947    0.8345012   -0.3003946 
C     1.8135211   -0.2878995   -1.0280423 
H     0.0784499   -1.1023664   -2.2087985 
C     3.1789729    1.2442298    0.4686602 
C     4.0466563    2.3042687   -0.2554401 
H     3.8031108    0.3483647    0.6830077 
H     2.8549360    1.6255828    1.4641118 
C     4.9131119    3.0483713    0.7666210 
N     3.1943723    3.2210084   -1.0485547 
H     4.7590797    1.7758138   -0.9331105 
H     3.6671525    4.1531907   -1.1608944 
H     3.0803221    2.8337227   -2.0153922 
H    -2.6791045    2.9013450   -0.9748384 
H    -2.0155708    0.7413700   -1.9647006 
H    -1.0813581    4.1672846    0.3878782 
H     1.1978561    3.2810511    0.7652161 
H     2.5867709   -1.0419309   -1.1592294 
O     6.2951980    2.8749416    0.7428390 
O     4.3359046    3.8875126    1.7307572 
H     3.3221385    3.9445564    1.6669613 
