27
Energy =
C    -1.0312326    3.2049882    0.8481349 
C    -1.1916293    1.8865529    0.5393642 
C    -0.1169055    1.1968932    0.1025151 
C     0.1926775    3.8005906    0.7134663 
C     1.2636102    3.0817336    0.2697802 
C     1.0800252    1.7700483   -0.0301360 
N    -0.0673758   -0.1737606   -0.2680727 
C     1.9585658    0.8582613   -0.4764975 
C     1.3131159   -0.3117375   -0.6291312 
H    -0.8332391   -0.8860597   -0.2733171 
C     3.4315715    1.0783548   -0.7424984 
C     4.2510252    1.1287933    0.5706103 
H     3.5480819    2.0339802   -1.3016912 
H     3.8293532    0.2747000   -1.4026746 
C     5.6415351    1.6948340    0.3214257 
N     4.3305002   -0.2031359    1.2077845 
H     3.7673607    1.8513845    1.2698928 
H     3.9314891   -0.1548600    2.1747818 
H     3.7866274   -0.9344113    0.6954940 
H    -1.8799211    3.7848548    1.2024184 
H    -2.1552654    1.3988908    0.6402472 
H     0.3132194    4.8528061    0.9609330 
H     2.2348011    3.5566946    0.1614458 
H     1.7665451   -1.2377937   -0.9752820 
O     5.9103948    3.0199416    0.6414360 
O     6.6170251    0.9504629   -0.3323618 
H     6.4486802    0.9868232   -1.3251254 
