27
Energy =
C    -1.3026808    2.9430657   -0.2455310 
C    -1.3297924    1.6654783    0.2301212 
C    -0.1800726    0.9588869    0.2304197 
C    -0.1328028    3.4834317   -0.7040085 
C     1.0168160    2.7494194   -0.6911903 
C     0.9642253    1.4779101   -0.2173395 
N     0.0118144   -0.3705631    0.6933292 
C     1.9406976    0.5661388   -0.0894253 
C     1.4147319   -0.5454035    0.4544728 
H    -0.6826723   -1.0380378    1.1008032 
C     3.4030226    0.7415871   -0.4416117 
C     4.3013393    1.3635602    0.6801432 
H     3.4809297    1.3649010   -1.3585997 
H     3.7985646   -0.2538521   -0.7538492 
C     5.5142305    0.4952754    0.9726353 
N     3.5644292    1.6605204    1.9226341 
H     4.7242876    2.3196490    0.2929194 
H     2.7955756    2.3455835    1.7364151 
H     3.1418553    0.7831093    2.3120714 
H    -2.2144287    3.5349835   -0.2577396 
H    -2.2479277    1.2234340    0.6018172 
H    -0.1188207    4.5042129   -1.0788572 
H     1.9464891    3.1819561   -1.0487255 
H     1.9757491   -1.4461671    0.6989925 
O     5.3575013   -0.8543610    1.2654962 
O     6.7880304    1.0452747    0.9682674 
H     6.9458204    1.4902339    1.8612691 
