27
Energy =
C    -1.4198036    2.3162692   -0.0742568 
C    -1.2580616    1.0016726   -0.3978502 
C    -0.0033954    0.5087964   -0.4623097 
C    -0.3298139    3.1045488    0.1730008 
C     0.9285073    2.5833195    0.0990939 
C     1.0647099    1.2708829   -0.2214374 
N     0.3826653   -0.8178038   -0.7929885 
C     2.1751463    0.5309915   -0.3642565 
C     1.8112218   -0.7155407   -0.7145083 
H    -0.2132942   -1.6451278   -1.0258883 
C     3.6053577    1.0067381   -0.2288454 
C     4.1149673    1.6773409   -1.5272844 
H     4.2667468    0.1459451    0.0238243 
H     3.6745677    1.7230243    0.6180983 
C     4.0887460    0.7212500   -2.7103405 
N     5.4753389    2.2229081   -1.3283807 
H     3.4142932    2.5012449   -1.8023413 
H     5.4737106    3.2546606   -1.5074445 
H     5.8360622    2.0787360   -0.3557831 
H    -2.4193515    2.7398812   -0.0161464 
H    -2.1115614    0.3641044   -0.6022955 
H    -0.4669345    4.1528954    0.4270263 
H     1.7930014    3.2117609    0.2909283 
H     2.5024301   -1.5260894   -0.9421430 
O     4.5779485   -0.5780837   -2.5915081 
O     3.5424461    1.1312307   -3.9211615 
H     3.6301037    0.3765099   -4.5883970 
