27
Energy =
C    -1.1286387    2.6985476    0.3983285 
C    -1.1956776    1.3889664    0.0250990 
C    -0.0406909    0.7282029   -0.1992586 
C     0.0842997    3.3155682    0.5343472 
C     1.2379620    2.6270855    0.2991655 
C     1.1465615    1.3225866   -0.0672822 
N     0.1096481   -0.6238226   -0.6086744 
C     2.1151125    0.4415097   -0.3599355 
C     1.5378269   -0.7250887   -0.6988756 
H    -0.6219981   -1.3492295   -0.7887810 
C     3.6045552    0.7062720   -0.3855359 
C     4.0541370    1.3177903   -1.7321407 
H     4.1555898   -0.2461448   -0.2120468 
H     3.8740186    1.3853415    0.4513729 
C     3.7573920    0.3947926   -2.9049594 
N     5.4869896    1.6542839   -1.6682903 
H     3.4753826    2.2493910   -1.9321275 
H     5.6735693    2.2938066   -0.8610076 
H     6.0464567    0.7789589   -1.5203181 
H    -2.0437076    3.2554036    0.5841309 
H    -2.1500066    0.8869217   -0.0937601 
H     0.1287889    4.3617210    0.8279476 
H     2.1995291    3.1214221    0.4016415 
H     2.0765020   -1.6103087   -1.0343068 
O     3.1449765    0.8940039   -4.0489719 
O     4.0646230   -0.9615466   -2.8347866 
H     3.8388389   -1.3910888   -3.7229832 
