27
Energy =
C    -1.2032725    3.1507964    0.1901521 
C    -1.1246172    2.0849367    1.0356825 
C    -0.0244487    1.3053248    0.9823485 
C    -0.1851394    3.4137197   -0.6833411 
C     0.9170117    2.6093201   -0.7197545 
C     0.9737739    1.5509893    0.1306704 
N     0.2544157    0.1629787    1.7786633 
C     1.9318639    0.6215142    0.2982855 
C     1.5421561   -0.2143602    1.2769132 
H    -0.3281639   -0.2832196    2.5238805 
C     3.2509676    0.5113760   -0.4376430 
C     4.3587172    1.3579386    0.2306280 
H     3.1303101    0.8160874   -1.5011279 
H     3.5602128   -0.5567340   -0.4530467 
C     4.1100056    2.8443477    0.0388311 
N     5.6741792    0.9639833   -0.3038407 
H     4.3523001    1.1861175    1.3330744 
H     5.8800856   -0.0273801   -0.0364621 
H     5.6662441    1.0143720   -1.3506853 
H    -2.0754668    3.7994153    0.2176576 
H    -1.9201884    1.8668959    1.7401032 
H    -0.2493094    4.2759149   -1.3440904 
H     1.7327990    2.8340657   -1.4018877 
H     2.1216181   -1.0570948    1.6471867 
O     3.7453499    3.6391054    1.1150848 
O     4.1192722    3.4012672   -1.2352622 
H     5.0824706    3.5844025   -1.4817555 
