27
Energy =
C    -1.3404896    2.8763473   -1.0074437 
C    -1.4162669    1.5766533   -0.6147490 
C    -0.3333724    0.9409977   -0.1263314 
C    -0.1871265    3.5868223   -0.9037489 
C     1.0412803    2.9972306   -0.2304594 
C     0.8423771    1.5374645    0.0165047 
N    -0.1948325   -0.4657262    0.0319955 
C     1.8094405    0.6151965    0.1373298 
C     1.2252992   -0.5930451    0.1835816 
H    -0.9313247   -1.2085918    0.0253534 
C     3.3177051    0.8664346    0.2314366 
C     3.9710014    2.0660954   -0.5966629 
H     3.8270579   -0.0679219   -0.0946942 
H     3.5152741    0.9186853    1.3099369 
C     4.8341781    3.0980292    0.1706221 
N     2.9927392    2.7402884   -1.4862255 
H     4.7249462    1.5995119   -1.2709506 
H     2.0443183    2.8535846   -0.8696438 
H     3.3211978    3.6903138   -1.7894305 
H    -2.2154025    3.3483202   -1.4486176 
H    -2.3351263    1.0191937   -0.7652044 
H    -0.1501910    4.6157306   -1.2512563 
H     1.2530001    3.5270918    0.7225920 
H     1.7513175   -1.5399045    0.2816063 
O     5.4341031    4.1049198   -0.5760823 
O     5.1126512    3.0910042    1.5410651 
H     4.8033452    2.2913355    2.0522598 
