27
Energy =
C    -0.9059768    2.5924338    0.7467187 
C    -1.0232961    1.5313826   -0.1007129 
C     0.1053405    0.9701519   -0.5831029 
C     0.3297562    3.0651917    1.0912140 
C     1.4557291    2.4816271    0.5898258 
C     1.3158923    1.4253140   -0.2526183 
N     0.2011070   -0.1381191   -1.4666719 
C     2.2484007    0.6819844   -0.8719850 
C     1.6223997   -0.2623320   -1.5970137 
H    -0.5616717   -0.7033021   -1.9050402 
C     3.7525236    0.8187066   -0.7666702 
C     4.3486333   -0.1537132    0.2675307 
H     4.0441677    1.8611660   -0.5096042 
H     4.1975806    0.6140422   -1.7642738 
C     3.9127586    0.2112109    1.6828893 
N     5.8144911   -0.1373889    0.1256440 
H     3.9698666   -1.1831922    0.0652178 
H     6.2525920   -0.6797393    0.9083219 
H     6.0804451   -0.6336047   -0.7571136 
H    -1.7979034    3.0611398    1.1544946 
H    -1.9958372    1.1412794   -0.3805015 
H     0.4175461    3.9067481    1.7742303 
H     2.4331726    2.8584398    0.8745626 
H     2.1187099   -1.0254070   -2.1915176 
O     4.2003250    1.4618556    2.2152248 
O     3.2349210   -0.7140371    2.4653963 
H     3.9015219   -1.3605297    2.8595598 
