27
Energy =
C    -1.4871320    2.2489382   -0.1762420 
C    -1.2462691    0.9488906    0.1561280 
C     0.0337001    0.5217364    0.1806626 
C    -0.4489178    3.0871054   -0.4757816 
C     0.8360872    2.6304240   -0.4442522 
C     1.0522851    1.3319591   -0.1086755 
N     0.4967523   -0.7821062    0.4931618 
C     2.2077957    0.6540967   -0.0096916 
C     1.9130674   -0.6153334    0.3449864 
H    -0.0467940   -1.6373331    0.7516516 
C     3.5842359    1.2414992   -0.2874535 
C     4.7786664    0.3053231   -0.0131435 
H     3.7096625    2.1636248    0.3244471 
H     3.6203355    1.5492189   -1.3558719 
C     4.8983904   -0.0529195    1.4625286 
N     5.9963961    0.9572743   -0.5259076 
H     4.6245021   -0.6496961   -0.5668318 
H     6.2255480    1.7894936    0.0723743 
H     6.8074879    0.2998653   -0.4377620 
H    -2.5086210    2.6201998   -0.2024042 
H    -2.0577871    0.2703496    0.3964093 
H    -0.6485642    4.1230723   -0.7392140 
H     1.6596737    3.2974188   -0.6819018 
H     2.6291839   -1.4157898    0.5118921 
O     4.9586927    0.9413906    2.4296034 
O     4.9778193   -1.3833645    1.8503191 
H     5.9156529   -1.7174113    1.6824858 
