27
Energy =
C    -1.3088978    2.8763742    0.8208001 
C    -1.1415385    1.5609653    1.1353757 
C    -0.0060286    0.9478515    0.7404972 
C    -0.3424313    3.5459956    0.1233887 
C     0.7968072    2.9031138   -0.2661915 
C     0.9432419    1.5923332    0.0579708 
N     0.3625957   -0.4035343    0.9740233 
C     1.9542150    0.7426428   -0.1965435 
C     1.6467604   -0.4513026    0.3407797 
H    -0.1650390   -1.1576728    1.4707646 
C     3.2541289    1.0395606   -0.9148105 
C     4.3595620    1.4950605    0.0680523 
H     3.1042229    1.8088261   -1.7049730 
H     3.5790408    0.1168980   -1.4436294 
C     4.1132323    2.9019493    0.5839740 
N     5.6773450    1.3980140   -0.5831386 
H     4.3529118    0.8426680    0.9733365 
H     5.8474871    0.4205761   -0.9172797 
H     5.7015159    2.0315614   -1.4198989 
H    -2.2118000    3.3962064    1.1319270 
H    -1.8960142    1.0163868    1.6929801 
H    -0.4786362    4.5991637   -0.1142367 
H     1.5668933    3.4414313   -0.8104655 
H     2.2838072   -1.3324485    0.3116779 
O     3.8679644    3.9455357   -0.3000804 
O     4.1469774    3.1678163    1.9428757 
H     5.1142508    3.2257800    2.2259024 
