27
Energy =
C    -0.4682631    0.7261410    2.8269893 
C    -0.5564470   -0.2379327    1.8686493 
C     0.2120384   -0.1173249    0.7661327 
C     0.3821414    1.7831390    2.6635414 
C     1.1496610    1.8839907    1.5407150 
C     1.0464777    0.9116544    0.5947709 
N     0.2636035   -1.0074818   -0.3378868 
C     1.6814267    0.7741651   -0.5849138 
C     1.2395571   -0.3586469   -1.1670481 
H    -0.2813364   -1.8848733   -0.5045797 
C     2.6896723    1.7342487   -1.2065544 
C     4.0905756    1.1271900   -1.5476210 
H     2.8150121    2.6204419   -0.5533245 
H     2.2386882    2.1360874   -2.1398262 
C     4.2607441   -0.3301010   -1.1496415 
N     5.1654173    1.9608124   -0.9835171 
H     4.2067701    1.1250259   -2.6552791 
H     5.0407572    2.9591106   -1.2717380 
H     5.1218120    1.9151053    0.0645628 
H    -1.0733244    0.6513330    3.7269145 
H    -1.2233012   -1.0854591    1.9848729 
H     0.4512315    2.5452531    3.4359293 
H     1.8265532    2.7234893    1.4301888 
H     1.6317491   -0.7681048   -2.1005196 
O     4.4495078   -0.6868470    0.1775975 
O     4.0528319   -1.3275504   -2.0959096 
H     4.8587856   -1.3692227   -2.7055345 
