27
Energy =
C    -0.0831496    1.3449501   -2.9395322 
C    -0.6876288    1.0111043   -1.7640187 
C     0.0482245    1.0483997   -0.6332849 
C     1.2365280    1.7031150   -2.9583389 
C     1.9593286    1.7318230   -1.8019295 
C     1.3353058    1.3994753   -0.6421751 
N    -0.3821293    0.7278935    0.6819745 
C     1.8153769    1.3421684    0.6110962 
C     0.8246000    0.9390313    1.4256762 
H    -1.3242103    0.4191348    1.0147730 
C     3.2299001    1.6318318    1.0625008 
C     4.0852321    0.3498266    1.1597163 
H     3.1880395    2.1349100    2.0553713 
H     3.7225576    2.3553579    0.3761195 
C     5.3800315    0.6141296    1.9203381 
N     4.3522110   -0.1618102   -0.1959109 
H     3.5344712   -0.4169704    1.7542511 
H     4.9869899   -0.9924467   -0.1333850 
H     3.4602791   -0.5303866   -0.6024548 
H    -0.6521622    1.3236686   -3.8656387 
H    -1.7322336    0.7207099   -1.7318647 
H     1.7134177    1.9642152   -3.9001453 
H     3.0098534    2.0069745   -1.8214338 
H     0.9195941    0.7857645    2.4984645 
O     6.0304649    1.8388502    1.8216648 
O     5.9390707   -0.3846387    2.7072779 
H     6.4406900   -1.0270277    2.1118778 
