27
Energy =
C    -1.1991529    2.6034854   -1.2263883 
C    -1.1921076    1.3308521   -0.7376923 
C    -0.0168638    0.8100978   -0.3263256 
C    -0.0375907    3.3219150   -1.2941034 
C     1.1377562    2.7729367   -0.8724482 
C     1.1209809    1.5045352   -0.3875281 
N     0.2070120   -0.4886260    0.2045375 
C     2.1245116    0.7460530    0.0835318 
C     1.6208919   -0.4500578    0.4368249 
H    -0.4772846   -1.2601974    0.3785710 
C     3.5885908    1.1164149    0.1686075 
C     4.3524149    0.6879446   -1.0977708 
H     4.0335622    0.6181327    1.0597321 
H     3.7073594    2.2094302    0.3325884 
C     5.8520731    0.7992744   -0.8839401 
N     3.8849998    1.4862669   -2.2461077 
H     4.1580545   -0.3934447   -1.2925934 
H     4.2189921    2.4746866   -2.1367256 
H     4.3428382    1.1260899   -3.1170253 
H    -2.1315050    3.0474896   -1.5660619 
H    -2.1038645    0.7461332   -0.6800137 
H    -0.0497302    4.3349843   -1.6887812 
H     2.0590682    3.3431199   -0.9332786 
H     2.2012208   -1.2813113    0.8317044 
O     6.4868760    2.0352494   -0.9138048 
O     6.5933479   -0.3359814   -0.5926908 
H     7.5614128   -0.0650219   -0.4709195 
