27
Energy =
C    -1.4672239    2.4218629   -0.5421294 
C    -1.1237688    1.1371004   -0.8425202 
C     0.1756831    0.7846119   -0.7517431 
C    -0.5100778    3.3192497   -0.1562548 
C     0.7967587    2.9381861   -0.0696489 
C     1.1159947    1.6546918   -0.3782678 
N     0.7373237   -0.4959522   -1.0036967 
C     2.3071439    1.0364825   -0.3652275 
C     2.1213302   -0.2473413   -0.7194132 
H     0.2687760   -1.3780739   -1.3149566 
C     3.6406206    1.6358761    0.0329981 
C     3.9760313    1.5312910    1.5533013 
H     3.6712734    2.7030126   -0.2749213 
H     4.4298127    1.1469709   -0.5826678 
C     5.3288374    0.8569852    1.7722827 
N     2.8872089    0.8684249    2.3009972 
H     4.1103860    2.5631779    1.9522500 
H     3.2041583    0.6753076    3.2827145 
H     2.0852558    1.5344689    2.3939923 
H    -2.5071519    2.7328016   -0.6068153 
H    -1.8715703    0.4115271   -1.1449093 
H    -0.7929162    4.3412817    0.0849995 
H     1.5539859    3.6503778    0.2440756 
H     2.9050211   -1.0004879   -0.7608815 
O     6.4591478    1.3584124    1.1400497 
O     5.4641308   -0.2406871    2.6132736 
H     5.2635904   -1.0759465    2.0838517 
