27
Energy =
C    -0.6415114    3.8006394   -1.1819375 
C    -1.0524845    2.7302176   -0.4454571 
C    -0.1365363    1.8014992   -0.0998154 
C     0.6681120    3.9173406   -1.5561149 
C     1.5755130    2.9646965   -1.1954942 
C     1.1454203    1.9070765   -0.4576654 
N    -0.3601748    0.6192421    0.6529729 
C     1.8244638    0.8477191    0.0178825 
C     0.9583838    0.0580373    0.6802597 
H    -1.2453267    0.2494654    1.0702992 
C     3.3045812    0.5511497   -0.1484642 
C     4.1416454    0.8360465    1.1236775 
H     3.7308213    1.1210579   -0.9997724 
H     3.4176248   -0.5231043   -0.4201920 
C     3.7062948   -0.0329166    2.3068393 
N     4.1665489    2.2816975    1.4506146 
H     5.1823209    0.4918388    0.9098603 
H     5.1334459    2.6610648    1.3068881 
H     3.5336126    2.8498918    0.8433509 
H    -1.3590668    4.5640248   -1.4731906 
H    -2.0884564    2.6214612   -0.1417237 
H     0.9873706    4.7745982   -2.1445160 
H     2.6133386    3.0637798   -1.4965054 
H     1.2168912   -0.8759594    1.1769915 
O     4.1138036   -1.3605607    2.3474434 
O     2.8371280    0.4255411    3.2952090 
H     2.6388588    1.4050546    3.1554171 
