27
Energy =
C    -1.2767803    2.2964267   -0.7505541 
C    -1.1233104    1.0501029   -0.2193132 
C     0.1278517    0.6130721    0.0349787 
C    -0.1819606    3.0716159   -1.0172605 
C     1.0727638    2.6058316   -0.7536645 
C     1.2006303    1.3632241   -0.2210554 
N     0.5054716   -0.6479142    0.5682479 
C     2.3066956    0.6818090    0.1169271 
C     1.9347901   -0.5244898    0.5812714 
H    -0.0954481   -1.4474385    0.8741790 
C     3.7386734    1.1434675   -0.0474735 
C     4.2546976    0.8932850   -1.4846448 
H     4.3925389    0.6169050    0.6854872 
H     3.8006782    2.2245173    0.2017821 
C     4.3978578   -0.5959432   -1.8120846 
N     5.5304083    1.6007751   -1.6824094 
H     3.5086763    1.2974436   -2.2071887 
H     5.4051053    2.6267000   -1.5131866 
H     6.2421095    1.2502358   -0.9953821 
H    -2.2735207    2.6734902   -0.9657200 
H    -1.9802157    0.4198385   -0.0068273 
H    -0.3123939    4.0632858   -1.4438713 
H     1.9412395    3.2202013   -0.9709296 
H     2.6205330   -1.3132822    0.8900460 
O     4.6219271   -1.5176451   -0.7938534 
O     4.3524182   -1.0540558   -3.1274699 
H     4.3441984   -0.2867964   -3.7829663 
