27
Energy =
C    -1.5654109    2.0717413    0.3582781 
C    -1.2339994    0.7612176    0.2187201 
C     0.0539911    0.4468434   -0.0323901 
C    -0.6076513    3.0351432    0.2456253 
C     0.6888047    2.6950471   -0.0072157 
C     1.0131113    1.3783418   -0.1466087 
N     0.5762502   -0.8584283   -0.1972769 
C     2.1969148    0.7553351   -0.3966286 
C     1.9571231   -0.5724489   -0.4175635 
H     0.0825621   -1.7803202   -0.1644334 
C     3.6283231    1.2788901   -0.5604240 
C     3.8196402    2.7500216   -1.0197009 
H     4.0867646    0.5905529   -1.2870609 
H     4.1679379    1.1209357    0.3999583 
C     5.0925653    3.0918436   -1.8336548 
N     3.7466672    3.5958952    0.1869737 
H     2.9889592    3.0097630   -1.7134656 
H     4.6670777    3.5851499    0.6923889 
H     3.5936580    4.5899226   -0.1070390 
H    -2.5964976    2.3517730    0.5608149 
H    -1.9832533   -0.0184221    0.3072095 
H    -0.8799374    4.0825568    0.3584209 
H     1.4082017    3.4867123   -0.0919165 
H     2.7149664   -1.3393996   -0.5670973 
O     5.3667437    4.4346402   -2.0604110 
O     5.9859012    2.1674182   -2.3852827 
H     5.7007521    1.2096843   -2.3598967 
