27
Energy =
C    -1.5238118    2.8227385   -0.6034506 
C    -1.3852341    1.5096999   -0.9388540 
C    -0.2191492    0.8956619   -0.6557516 
C    -0.4994216    3.4938968    0.0044628 
C     0.6891993    2.8640414    0.2750677 
C     0.7895449    1.5406085   -0.0706543 
N     0.1470853   -0.4409537   -0.9720467 
C     1.8489043    0.7211334    0.0056662 
C     1.5087919   -0.4667552   -0.5216609 
H    -0.4204460   -1.1978426   -1.4184215 
C     3.2357084    1.1077634    0.4629164 
C     3.8945002    2.1348874   -0.5015372 
H     3.8816949    0.2060644    0.5450490 
H     3.1677919    1.5528258    1.4798020 
C     5.2177898    2.6253371    0.0393232 
N     3.0087013    3.2848079   -0.7641986 
H     4.1295686    1.6187527   -1.4584106 
H     2.5343761    3.1594073   -1.6983636 
H     2.2504280    3.4090464    0.1630100 
H    -2.4564812    3.3385103   -0.8198554 
H    -2.1864755    0.9682098   -1.4305810 
H    -0.6330114    4.5391899    0.2762601 
H     1.5664902    3.5070234    0.9326836 
H     2.1832182   -1.3112908   -0.6452696 
O     5.3607938    2.9835777    1.3789778 
O     6.3186440    2.7180690   -0.8053844 
H     7.1021307    3.0816567   -0.2788465 
