27
Energy =
C    -0.9772274    3.0055913   -1.4723801 
C    -1.2298924    1.8221652   -0.8440562 
C    -0.1865677    1.1313644   -0.3378141 
C     0.3053084    3.4682022   -1.5801282 
C     1.3422438    2.7513361   -1.0591299 
C     1.0670196    1.5766463   -0.4379932 
N    -0.2310912   -0.1145747    0.3440324 
C     1.8949371    0.6961651    0.1461197 
C     1.1598395   -0.3266620    0.6180357 
H    -1.0564499   -0.7115079    0.5804399 
C     3.4051410    0.7891212    0.2414090 
C     4.1724839    0.4014258   -1.0611251 
H     3.7504478    0.1290788    1.0673951 
H     3.6699796    1.8194035    0.5725206 
C     5.0269171    1.5611420   -1.5642671 
N     3.2579749   -0.1023275   -2.1026603 
H     4.8955208   -0.4072210   -0.8050738 
H     3.7961848   -0.2983483   -2.9794729 
H     2.8556768   -1.0183002   -1.7932593 
H    -1.7978801    3.5817169   -1.8922230 
H    -2.2404599    1.4392714   -0.7522392 
H     0.5020859    4.4097331   -2.0875281 
H     2.3601193    3.1163836   -1.1500594 
H     1.5580876   -1.2000416    1.1284978 
O     4.5076482    2.5142060   -2.4312301 
O     6.3245309    1.7187541   -1.0936353 
H     6.9399491    1.1095969   -1.6127394 
