27
Energy =
C    -1.1763711    3.1900809   -0.6117935 
C    -1.2207941    1.8288460   -0.6617547 
C    -0.0592008    1.1471083   -0.5764062 
C     0.0211549    3.8352391   -0.4749497 
C     1.1824110    3.1221496   -0.3945015 
C     1.1157786    1.7679226   -0.4495128 
N     0.1092993   -0.2625031   -0.5981074 
C     2.0951508    0.8482855   -0.3929191 
C     1.5319903   -0.3709996   -0.4678419 
H    -0.6110180   -1.0154112   -0.6904456 
C     3.5854001    1.0864586   -0.2556049 
C     4.0275724    1.2131373    1.2207032 
H     3.8968827    1.9763909   -0.8436086 
H     4.1162790    0.2231983   -0.7186084 
C     3.9322583    2.6478818    1.7217970 
N     5.3884792    0.6593171    1.3532778 
H     3.3373115    0.6270998    1.8743946 
H     6.0587847    1.2580144    0.8138367 
H     5.6896108    0.7437873    2.3549181 
H    -2.0984573    3.7636716   -0.6691534 
H    -2.1632686    1.3006334   -0.7611833 
H     0.0459754    4.9212553   -0.4142082 
H     2.1299916    3.6321735   -0.2540034 
H     2.0749192   -1.3133936   -0.4341002 
O     2.7125517    3.1539739    2.1398014 
O     5.0237037    3.5025861    1.6674562 
H     5.1203935    3.8566809    0.7293128 
