27
Energy =
C    -0.7005045    3.1902995   -1.5420219 
C    -1.0039759    1.9771207   -0.9996145 
C     0.0030930    1.2282599   -0.5033195 
C     0.5950497    3.6262465   -1.5740561 
C     1.5955812    2.8506776   -1.0655252 
C     1.2708822    1.6447060   -0.5319806 
N    -0.0995920   -0.0510126    0.1052560 
C     2.0549382    0.7068320    0.0250139 
C     1.2735102   -0.3141007    0.4221806 
H    -0.9454588   -0.6423612    0.2741936 
C     3.5557650    0.7684361    0.2322233 
C     3.9411054    1.4464129    1.5625523 
H     4.0329323    1.3046734   -0.6148667 
H     3.9679411   -0.2656247    0.2173477 
C     3.2947476    0.7496116    2.7605518 
N     3.6183792    2.8839067    1.4723569 
H     5.0379858    1.3190771    1.7167592 
H     3.6623933    3.3142213    2.4296779 
H     4.3583799    3.3643092    0.9095417 
H    -1.4927231    3.8149400   -1.9469545 
H    -2.0268987    1.6182435   -0.9629443 
H     0.8278009    4.5982617   -2.0027181 
H     2.6221698    3.2016785   -1.0808112 
H     1.6271374   -1.2073334    0.9348117 
O     3.4871057   -0.6125849    2.9524839 
O     2.5153926    1.4510941    3.6706633 
H     1.5687244    1.4708467    3.3199324 
