27
Energy =
C    -1.6108791    1.2988856   -0.7880605 
C    -1.1021883    0.1612186   -0.2360724 
C     0.2251210    0.1034711    0.0018896 
C    -0.7858558    2.3460963   -1.0910581 
C     0.5522230    2.2644935   -0.8407588 
C     1.0375146    1.1228981   -0.2860280 
N     0.9482274   -0.9842395    0.5609920 
C     2.2951405    0.7925787    0.0533954 
C     2.2817855   -0.4576798    0.5497939 
H     0.5993098   -1.9100546    0.8987704 
C     3.5404519    1.6452393   -0.0981404 
C     4.3624231    1.2848423   -1.3513270 
H     4.1763918    1.5104777    0.8029996 
H     3.2727954    2.7229932   -0.1265224 
C     3.5760765    1.5209366   -2.6364699 
N     4.8579953   -0.0996592   -1.2343472 
H     5.2312120    1.9830298   -1.4025061 
H     5.3740215   -0.3539363   -2.1108406 
H     5.5677727   -0.1445480   -0.4657216 
H    -2.6752838    1.3706079   -0.9964469 
H    -1.7423427   -0.6810641    0.0029676 
H    -1.1959411    3.2454634   -1.5440029 
H     1.2047082    3.0917654   -1.1022536 
H     3.1612317   -1.0052104    0.8782825 
O     3.9220812    2.5746725   -3.4716329 
O     2.5110278    0.7043595   -2.9918874 
H     2.8701908   -0.0776449   -3.5177061 
