27
Energy =
C    -1.3131985    2.7994075   -0.3747071 
C    -1.2696916    1.4382601   -0.4161190 
C    -0.0627223    0.8349988   -0.3844740 
C    -0.1558423    3.5228102   -0.3038491 
C     1.0519809    2.8891101   -0.2740497 
C     1.0745507    1.5328132   -0.3144204 
N     0.1943433   -0.5605704   -0.4234885 
C     2.1148608    0.6792586   -0.2983558 
C     1.6256411   -0.5746961   -0.3593421 
H    -0.4767519   -1.3591626   -0.4983007 
C     3.5972313    1.0077675   -0.2442242 
C     4.1722393    1.5132992    1.1264409 
H     3.8321324    1.7157020   -1.0668995 
H     4.1557191    0.0861709   -0.5247348 
C     3.4137223    1.1581820    2.4221007 
N     4.5004734    2.9562746    1.0846032 
H     5.1317206    0.9579142    1.2529860 
H     5.5393287    3.0819503    1.0281976 
H     4.1098513    3.4471772    0.2517233 
H    -2.2725804    3.3108252   -0.3934569 
H    -2.1786987    0.8484515   -0.4693504 
H    -0.1986643    4.6087976   -0.2649359 
H     1.9619662    3.4664854   -0.2124824 
H     2.2271225   -1.4803682   -0.3446743 
O     2.1030963    0.6978292    2.4154161 
O     4.0425329    1.2920714    3.6609982 
H     4.9371075    1.7499288    3.5679903 
