27
Energy =
C    -1.4932996    1.9213669   -0.7307984 
C    -1.2307923    0.5838473   -0.6988018 
C     0.0379449    0.1867161   -0.4668602 
C    -0.4862856    2.8262147   -0.5368898 
C     0.7885012    2.3994422   -0.3061197 
C     1.0246277    1.0630793   -0.2719000 
N     0.5240072   -1.1472302   -0.4125940 
C     2.1733123    0.3969016   -0.0758324 
C     1.9190588   -0.9205050   -0.1675032 
H     0.0016669   -2.0479532   -0.5124495 
C     3.5445369    0.9995304    0.1579121 
C     4.3103632    1.4068384   -1.1334207 
H     4.1532664    0.2792661    0.7489767 
H     3.4407161    1.8879543    0.8175359 
C     3.5312987    1.2014071   -2.4309564 
N     5.6186083    0.7261852   -1.1475626 
H     4.4918010    2.5053964   -1.0822928 
H     5.4757832   -0.2835584   -1.3965242 
H     6.2002816    1.1308024   -1.9194886 
H    -2.5056674    2.2696024   -0.9195221 
H    -2.0160758   -0.1468842   -0.8603485 
H    -0.7005215    3.8914175   -0.5759065 
H     1.5907603    3.1188753   -0.1716224 
H     2.6685856   -1.7062021   -0.1017675 
O     3.4891218   -0.0451788   -3.0468861 
O     2.8032735    2.2496817   -2.9766177 
H     2.3340418    1.9135548   -3.8078383 
