27
Energy =
C    -1.3829130    2.0097308   -1.2104235 
C    -1.1169785    0.6735772   -1.1593335 
C     0.1235431    0.2817055   -0.8003396 
C    -0.4073220    2.9186419   -0.9066537 
C     0.8393633    2.4973187   -0.5476381 
C     1.0802623    1.1615232   -0.4993564 
N     0.6073362   -1.0500492   -0.6985053 
C     2.2054249    0.4977078   -0.1868654 
C     1.9653389   -0.8202636   -0.3018369 
H     0.1062023   -1.9522591   -0.8690822 
C     3.5426399    1.0939888    0.1915855 
C     4.4739892    1.2530338   -1.0265638 
H     4.0245376    0.4363469    0.9502065 
H     3.4092697    2.0812280    0.6855515 
C     5.8937898    1.5547346   -0.5723796 
N     3.9530347    2.3169386   -1.9043991 
H     4.5308876    0.2866442   -1.5828230 
H     4.6508655    2.5029365   -2.6654772 
H     3.1022895    1.9608866   -2.4009479 
H    -2.3737780    2.3535285   -1.4969862 
H    -1.8780031   -0.0605564   -1.4015810 
H    -0.6252371    3.9830239   -0.9545120 
H     1.6153997    3.2216811   -0.3180384 
H     2.6959681   -1.6074842   -0.1267670 
O     6.9683298    0.9586775   -1.2167856 
O     6.1360858    2.4625886    0.4497492 
H     6.1252344    3.3909063    0.0528699 
