27
Energy =
C    -1.3340474    2.2411458   -1.7069763 
C    -1.3184910    1.0551758   -1.0345264 
C    -0.1588826    0.6537191   -0.4727331 
C    -0.1954489    2.9923380   -1.8054692 
C     0.9646337    2.5638532   -1.2301777 
C     0.9550556    1.3823990   -0.5614296 
N     0.0748717   -0.5469471    0.2499066 
C     1.9507665    0.7440176    0.0732652 
C     1.4693187   -0.4138160    0.5583043 
H    -0.5919546   -1.3154407    0.4912797 
C     3.3920317    1.1973308    0.1926642 
C     4.3161093    0.7628574   -0.9853607 
H     3.8082560    0.7929631    1.1413906 
H     3.4075852    2.3024827    0.3252737 
C     4.9802221    1.9606129   -1.6501656 
N     3.6015076   -0.0880030   -1.9578463 
H     5.1558961    0.1692973   -0.5533112 
H     2.9384743    0.5124273   -2.5071823 
H     4.2897116   -0.4555249   -2.6568583 
H    -2.2539442    2.5883041   -2.1705378 
H    -2.2107169    0.4439407   -0.9525200 
H    -0.2123323    3.9338955   -2.3491587 
H     1.8707900    3.1562275   -1.3195971 
H     2.0577466   -1.1593991    1.0880160 
O     6.3435951    2.1746742   -1.4994872 
O     4.2334411    2.8625379   -2.3966103 
H     4.8584973    3.5751876   -2.7524000 
