27
Energy =
C    -1.5681255    2.2156033   -0.5023382 
C    -1.3988549    1.1247110    0.2979065 
C    -0.1523822    0.6304460    0.4498266 
C    -0.4928607    2.7876958   -1.1246242 
C     0.7579349    2.2716127   -0.9524918 
C     0.9009251    1.1804696   -0.1566796 
N     0.2418702   -0.4755233    1.2496866 
C     2.0075188    0.4999507    0.1811247 
C     1.6580753   -0.4866040    1.0249916 
H    -0.3413491   -1.1094362    1.8426285 
C     3.4271962    0.8031987   -0.2435974 
C     4.2474986    1.8099052    0.6416162 
H     3.4086763    1.1750263   -1.2911027 
H     3.9617537   -0.1720849   -0.3159778 
C     5.5624623    1.1910509    1.0926288 
N     3.5283769    2.3762265    1.8086077 
H     4.5528304    2.6515004   -0.0239797 
H     3.5288186    3.4219484    1.7585740 
H     2.5370752    2.0808879    1.9282768 
H    -2.5613977    2.6344231   -0.6426670 
H    -2.2395929    0.6632379    0.8045415 
H    -0.6354665    3.6605074   -1.7573942 
H     1.6113990    2.7331279   -1.4396978 
H     2.3539334   -1.1776137    1.4976715 
O     5.5729558    0.1173977    1.9756664 
O     6.7648027    1.6280851    0.5468391 
H     6.8798456    1.2203290   -0.3690601 
