27
Energy =
C    -1.4703749    2.7187769   -0.9400944 
C    -1.3648638    1.4300613   -0.5095274 
C    -0.1400591    0.9579461   -0.1971089 
C    -0.3559695    3.5029963   -1.0487484 
C     0.8723700    3.0036194   -0.7256089 
C     0.9546333    1.7157946   -0.2991236 
N     0.1826100   -0.3459437    0.2654023 
C     2.0244542    0.9934430    0.0762997 
C     1.6041004   -0.2388317    0.4145142 
H    -0.4487155   -1.1592948    0.4507158 
C     3.4719203    1.4400322    0.1071861 
C     4.2212233    1.1588407   -1.2099112 
H     3.9971312    0.9076156    0.9302104 
H     3.5358030    2.5234824    0.3482099 
C     3.6780479    1.9839036   -2.3701042 
N     4.2439067   -0.2935245   -1.4697094 
H     5.2688552    1.5113927   -1.0736943 
H     3.3158000   -0.5921616   -1.8574601 
H     4.9310408   -0.4801970   -2.2385178 
H    -2.4450474    3.1226012   -1.2026845 
H    -2.2393276    0.7943326   -0.4210846 
H    -0.4501353    4.5282670   -1.4013027 
H     1.7582697    3.6261737   -0.8236815 
H     2.2528128   -1.0505119    0.7378728 
O     3.1330893    1.3783061   -3.4967224 
O     3.7141412    3.3720666   -2.2993760 
H     3.3803105    3.7503039   -3.1784253 
