27
Energy =
C    -1.3593787    0.3834134   -0.4098210 
C    -0.5219831   -0.5378761    0.1458038 
C     0.7909747   -0.2376323    0.2340796 
C    -0.8683064    1.5776287   -0.8604459 
C     0.4627655    1.8575347   -0.7591350 
C     1.2778303    0.9251441   -0.2034506 
N     1.8217296   -1.0483214    0.7814745 
C     2.6028117    0.9570908    0.0135497 
C     2.9613112   -0.1959201    0.6068987 
H     1.7647189   -2.0108952    1.1869663 
C     3.5516104    2.1009977   -0.2914660 
C     3.6458215    3.1870592    0.8275864 
H     3.2601576    2.5540204   -1.2641169 
H     4.5661260    1.6796162   -0.4683222 
C     2.8820858    2.8471359    2.1166986 
N     3.2454395    4.5006317    0.2951235 
H     4.7136545    3.2751274    1.1281203 
H     3.8049743    4.7365530   -0.5580371 
H     2.2313961    4.4845170    0.0302253 
H    -2.4227510    0.1705385   -0.4880968 
H    -0.8961701   -1.4870338    0.5146288 
H    -1.5428342    2.3117476   -1.2943039 
H     0.8484651    2.8086917   -1.1098990 
H     3.9675772   -0.4415214    0.9376985 
O     1.5134644    3.0830084    2.1931729 
O     3.5086719    2.2125312    3.1913536 
H     4.4915864    2.0641018    3.0277172 
