27
Energy =
C    -1.3118425    0.0512490   -1.5472683 
C    -0.5684773   -0.9148857   -0.9373582 
C     0.6202332   -0.5650237   -0.4023172 
C    -0.8538509    1.3381625   -1.6061059 
C     0.3494621    1.6674162   -1.0554682 
C     1.0760651    0.6882379   -0.4569865 
N     1.5382671   -1.4124405    0.2739925 
C     2.2739294    0.7481370    0.1499926 
C     2.5794617   -0.4825335    0.5995358 
H     1.4682643   -2.4358383    0.4787886 
C     3.1594673    1.9687619    0.3115439 
C     4.1150805    2.2071054   -0.8843768 
H     3.7593287    1.8682022    1.2427832 
H     2.5222693    2.8690595    0.4581265 
C     3.3769858    2.3950011   -2.2118542 
N     5.1713437    1.1762348   -0.9353734 
H     4.6085912    3.1945846   -0.7226500 
H     5.8046910    1.2838126   -0.1072781 
H     4.7691841    0.2130225   -0.8863196 
H    -2.2709736   -0.2027414   -1.9917245 
H    -0.9171944   -1.9405744   -0.8828015 
H    -1.4481763    2.1036827   -2.0995854 
H     0.7093767    2.6906181   -1.1091835 
H     3.4916902   -0.7426631    1.1316223 
O     2.8765495    3.6549031   -2.5183643 
O     3.0987248    1.3430522   -3.0841736 
H     3.5356410    0.4895777   -2.7773590 
