27
Energy =
C    -1.2636369    2.1263063    0.4757466 
C    -1.1044742    0.7964577    0.2249512 
C     0.1231132    0.3518176   -0.1159052 
C    -0.1988389    2.9777301    0.3776358 
C     1.0325644    2.5050546    0.0302296 
C     1.1710406    1.1738024   -0.2100468 
N     0.4939914   -0.9837938   -0.4217010 
C     2.2571465    0.4619116   -0.5622223 
C     1.8892073   -0.8246264   -0.7033141 
H    -0.0953698   -1.8473172   -0.4436708 
C     3.6652002    0.9771578   -0.7866979 
C     4.6830618    0.3623851    0.1933535 
H     3.7144524    2.0833432   -0.7207987 
H     3.9729475    0.7200849   -1.8246745 
C     4.3450536    0.6221200    1.6590796 
N     6.0198051    0.8646807   -0.1655942 
H     4.6732193   -0.7464609    0.0716589 
H     6.1018368    1.8696506    0.1261496 
H     6.7375293    0.3475226    0.3978459 
H    -2.2416973    2.5109228    0.7540940 
H    -1.9391322    0.1073572    0.2964175 
H    -0.3349948    4.0380557    0.5775619 
H     1.8678856    3.1917804   -0.0493343 
H     2.5520671   -1.6385542   -0.9882137 
O     4.2463582   -0.4439462    2.5415221 
O     4.1947325    1.9157564    2.1438893 
H     3.3030598    2.2767085    1.8457692 
