27
Energy =
C    -1.2848592    2.1918874   -0.9188202 
C    -1.1056213    1.0150913   -0.2539421 
C     0.1535093    0.6409798    0.0554273 
C    -0.2072131    2.9618332   -1.2601465 
C     1.0560996    2.5604796   -0.9381487 
C     1.2095208    1.3866973   -0.2728229 
N     0.5576935   -0.5436516    0.7267848 
C     2.3283340    0.7753648    0.1461247 
C     1.9828465   -0.3821925    0.7367811 
H    -0.0269238   -1.3198812    1.1131052 
C     3.7492741    1.2534673   -0.0548347 
C     4.2936738    0.8667228   -1.4421899 
H     4.4181773    0.8206920    0.7247123 
H     3.7904775    2.3552234    0.0777881 
C     4.4590122   -0.6416255   -1.5894472 
N     5.5704938    1.5714900   -1.6475563 
H     3.5648932    1.1729670   -2.2296112 
H     6.0190741    1.2179476   -2.5281446 
H     5.3782101    2.5870674   -1.8128278 
H    -2.2883920    2.5171071   -1.1813605 
H    -1.9486868    0.3897706    0.0194940 
H    -0.3583857    3.8973092   -1.7933462 
H     1.9104936    3.1705905   -1.2146447 
H     2.6851710   -1.1136451    1.1354836 
O     4.3639199   -1.2243518   -2.8471082 
O     4.7410404   -1.4497107   -0.4922358 
H     4.8649508   -2.3987733   -0.8217271 
