27
Energy =
C    -1.3048528    2.2464684   -1.2560942 
C    -1.1850787    1.0462380   -0.6203830 
C     0.0377494    0.6684618   -0.1925270 
C    -0.2048534    3.0352005   -1.4524406 
C     1.0212920    2.6294296   -1.0134647 
C     1.1152114    1.4326442   -0.3785416 
N     0.3804111   -0.5405722    0.4697075 
C     2.1894270    0.8111331    0.1323545 
C     1.7953169   -0.3722032    0.6348928 
H    -0.2348112   -1.3333886    0.7641663 
C     3.6216168    1.2967654    0.0952326 
C     4.3251500    0.9022416   -1.2150925 
H     4.1783870    0.8937946    0.9689690 
H     3.6459247    2.4029735    0.2073218 
C     4.4262138   -0.6170561   -1.3782232 
N     5.6368609    1.5846580   -1.2499823 
H     3.6949485    1.2533999   -2.0685896 
H     6.4317443    0.9009374   -1.2839067 
H     5.7120489    2.1518791   -2.1278287 
H    -2.2780456    2.5749587   -1.6122550 
H    -2.0455321    0.4048676   -0.4629329 
H    -0.3075766    3.9888880   -1.9645829 
H     1.8942472    3.2538121   -1.1773419 
H     2.4614053   -1.1192237    1.0652868 
O     3.7794626   -1.2300538   -2.4426137 
O     5.1411898   -1.4101419   -0.4802572 
H     5.5911182   -0.8504621    0.2282822 
