27
Energy =
C    -0.9717205    3.6022155   -0.1913545 
C    -1.1093306    2.3355783   -0.6755108 
C    -0.0015351    1.5753215   -0.8026036 
C     0.2628634    4.0773899    0.1538690 
C     1.3681249    3.2890344    0.0154685 
C     1.2080443    2.0305899   -0.4689851 
N     0.0701611    0.2386807   -1.2780277 
C     2.1179163    1.0670728   -0.6976528 
C     1.4762337   -0.0165104   -1.1698329 
H    -0.6960990   -0.3854905   -1.6217909 
C     3.6083640    1.1279171   -0.4363688 
C     3.9604187    0.6839782    0.9945721 
H     4.0035292    2.1492411   -0.6276708 
H     4.1284708    0.4547955   -1.1539992 
C     3.4528004    1.6753993    2.0291288 
N     5.4184398    0.4872212    1.0743302 
H     3.4510526   -0.2843247    1.2137898 
H     5.8957682    1.4220819    1.0651043 
H     5.6453660    0.0585312    2.0032134 
H    -1.8486619    4.2346173   -0.0739524 
H    -2.0824615    1.9413096   -0.9493576 
H     0.3632568    5.0863757    0.5475652 
H     2.3455109    3.6666470    0.2992535 
H     1.9489295   -0.9641687   -1.4203863 
O     3.9986757    2.9529177    2.1089518 
O     2.3765263    1.3454806    2.8395269 
H     2.1803939    2.1164913    3.4652696 
