27
Energy =
C    -0.6577425    1.6962524   -2.2330588 
C    -0.8975938    0.8024759   -1.2320636 
C     0.0712688    0.5922682   -0.3164377 
C     0.5392274    2.3543698   -2.2968974 
C     1.5033311    2.1237857   -1.3598885 
C     1.2417947    1.2307922   -0.3702011 
N     0.0270721   -0.2971265    0.7901612 
C     2.0110996    0.8251843    0.6539712 
C     1.3241995   -0.0877771    1.3629696 
H    -0.7435944   -0.9329593    1.0996198 
C     3.4255151    1.2620468    0.9677083 
C     4.4813414    0.2503047    0.4509786 
H     3.5134289    1.3678756    2.0735540 
H     3.6324941    2.2728620    0.5552877 
C     5.8829177    0.5521470    0.9927966 
N     4.4656528    0.2085658   -1.0242812 
H     4.2467677   -0.7628273    0.8519282 
H     3.5480402   -0.1622924   -1.3691284 
H     4.5896460    1.1732712   -1.4142177 
H    -1.4208423    1.8849296   -2.9842444 
H    -1.8403313    0.2696754   -1.1682375 
H     0.7242248    3.0644178   -3.0997063 
H     2.4535399    2.6449462   -1.4173662 
H     1.6972621   -0.6026424    2.2459215 
O     6.0278193    1.2565325    2.1828384 
O     7.0298187    0.0462618    0.3830308 
H     6.8016830   -0.4433098   -0.4701048 
