27
Energy =
C    -1.4563637    2.1921891   -0.7411648 
C    -1.2208752    1.1835587    0.1423784 
C     0.0355853    0.8934388    0.5401875 
C    -0.4517428    2.9808963   -1.2048353 
C     0.9378870    2.8830238   -0.6044073 
C     1.0907375    1.5753531    0.1110097 
N     0.4470475   -0.3273728    1.1402088 
C     2.2062895    0.8342531    0.2645602 
C     1.8571093   -0.3034288    0.8878968 
H    -0.1308892   -1.0599756    1.6140199 
C     3.5604247    1.0179318   -0.4299489 
C     3.9029838    2.4296952   -0.9914446 
H     3.5951635    0.3043968   -1.2815764 
H     4.3629798    0.7102641    0.2782546 
C     4.1496726    3.4329279    0.1321296 
N     2.8579159    2.8607534   -1.9476653 
H     4.8722878    2.3597767   -1.5329963 
H     1.9281942    2.8652769   -1.2841786 
H     3.0399817    3.8522138   -2.2405348 
H    -2.4674867    2.3494194   -1.1097239 
H    -2.0368253    0.5393840    0.4543308 
H    -0.6634629    3.7718195   -1.9189436 
H     1.0493347    3.7085668    0.1309584 
H     2.5199721   -1.1505246    1.0508874 
O     3.8017668    4.7707902   -0.0148835 
O     4.8090625    3.0368166    1.2886847 
H     4.9003529    3.8408220    1.8975675 
