27
Energy =
C    -1.4914262    2.6329472   -0.3179654 
C    -1.2706509    1.4483759    0.3198989 
C    -0.0116651    0.9630174    0.3498289 
C    -0.4552884    3.2998229   -0.9112727 
C     0.8082639    2.7876159   -0.8685848 
C     1.0052850    1.6086736   -0.2236998 
N     0.4267957   -0.2507626    0.9438493 
C     2.1317973    0.8987033   -0.0481043 
C     1.8262338   -0.2178672    0.6353886 
H    -0.1237511   -0.9734138    1.4621811 
C     3.5143678    1.2395804   -0.5571858 
C     3.8128102    0.5847740   -1.9220014 
H     4.2628435    0.8955785    0.1915401 
H     3.6433866    2.3416602   -0.6377339 
C     5.2792570    0.7534722   -2.2994501 
N     2.9256467    1.1598100   -2.9483044 
H     3.6411010   -0.5143239   -1.8455204 
H     3.2315477    0.8211311   -3.8918406 
H     1.9620283    0.7731251   -2.8166124 
H    -2.4958673    3.0472576   -0.3571273 
H    -2.0819686    0.9044190    0.7917441 
H    -0.6394665    4.2421991   -1.4219534 
H     1.6283752    3.3136992   -1.3491267 
H     2.5353319   -0.9941036    0.9140326 
O     5.9815745    1.9084643   -1.9679180 
O     5.9279614   -0.2436059   -3.0157911 
H     6.8785423    0.0564413   -3.1890946 
