27
Energy =
C    -0.2026605    3.6809658    0.4324917 
C    -0.5753639    2.3957846    0.6916703 
C     0.3111290    1.4094868    0.4411603 
C     1.0411601    3.9497903   -0.0673598 
C     1.9208627    2.9356382   -0.3092416 
C     1.5277173    1.6621313   -0.0462403 
N     0.1222945    0.0162330    0.6440372 
C     2.1928602    0.5026495   -0.1899911 
C     1.3871335   -0.4977626    0.2096017 
H    -0.7134622   -0.4911347    1.0149827 
C     3.6024126    0.3083863   -0.7124992 
C     3.6798572    0.1867031   -2.2554999 
H     4.0360500   -0.6079755   -0.2555714 
H     4.2447078    1.1500295   -0.3691961 
C     3.3354463    1.4924858   -2.9540487 
N     2.8737087   -0.9474375   -2.7453338 
H     4.7432707    0.0003410   -2.5311407 
H     3.0994345   -1.8112597   -2.1991549 
H     1.8540521   -0.7442543   -2.6030296 
H    -0.8990632    4.4945070    0.6188781 
H    -1.5588184    2.1648547    1.0861902 
H     1.3286386    4.9764658   -0.2815200 
H     2.9030449    3.1541270   -0.7166183 
H     1.6500696   -1.5526250    0.2025920 
O     4.3042637    2.4804532   -3.0700464 
O     2.0462585    1.7609906   -3.3931934 
H     1.9508388    1.4050754   -4.3329861 
