27
Energy =
C    -1.3465879    2.1683052   -0.8240893 
C    -1.1213893    1.0492074   -0.0792816 
C     0.1562093    0.6765554    0.1452110 
C    -0.2958549    2.8857516   -1.3245579 
C     0.9865401    2.4896312   -1.0830089 
C     1.1880628    1.3708079   -0.3396152 
N     0.6025307   -0.4478899    0.8899705 
C     2.3332402    0.7772335    0.0358670 
C     2.0239653   -0.3098874    0.7654169 
H     0.0435062   -1.1716983    1.3966470 
C     3.7464914    1.2104615   -0.3024964 
C     4.3113393    0.5167082   -1.5586044 
H     4.4102688    0.9696279    0.5575416 
H     3.7905759    2.3136528   -0.4269977 
C     3.5412654    0.8660352   -2.8274317 
N     4.4093879   -0.9351868   -1.3171063 
H     5.3385944    0.9182508   -1.7251162 
H     3.4599559   -1.3691550   -1.4228992 
H     4.9874550   -1.3628541   -2.0800581 
H    -2.3656554    2.4885952   -1.0253718 
H    -1.9441097    0.4672514    0.3217894 
H    -0.4833880    3.7731518   -1.9241355 
H     1.8158359    3.0587068   -1.4882063 
H     2.7498619   -1.0027604    1.1850563 
O     2.3793475    0.1864973   -3.1688440 
O     3.9747675    1.9080842   -3.6358327 
H     3.6831683    2.7843610   -3.2310972 
