27
Energy =
C    -1.4364900    2.4123256   -0.1282226 
C    -1.0940044    1.4872012    0.8173302 
C     0.2032491    1.1695613    1.0450437 
C    -0.4790706    3.0863742   -0.8250742 
C     0.9508754    3.0130643   -0.4162210 
C     1.1752017    1.7422315    0.3631393 
N     0.6599554   -0.0694388    1.5752429 
C     2.2165256    0.9091802    0.2157381 
C     1.9441009   -0.1818049    0.9474507 
H     0.1633893   -0.7216142    2.2089976 
C     3.1736439    0.9006391   -0.9962830 
C     3.8812482    2.2024464   -1.4616227 
H     2.5105871    0.6416793   -1.8535319 
H     3.8906288    0.0922505   -0.8781345 
C     4.6558521    2.9045745   -0.3241143 
N     2.7610060    2.9292452   -2.1496213 
H     4.7488541    2.0193314   -2.1776310 
H     1.9099338    2.9660633   -1.2983065 
H     2.9837037    3.9462582   -2.2597470 
H    -2.4782393    2.5977280   -0.3453330 
H    -1.8650977    0.9163760    1.3098744 
H    -0.6861376    3.8621000   -1.5302503 
H     1.0154235    3.8071600    0.4352246 
H     2.4922868   -1.1099303    0.8675633 
O     6.0371741    2.7327564   -0.2423786 
O     4.0156069    3.6156363    0.6567096 
H     3.0214410    3.5066053    0.3394474 
