27
Energy =
C    -1.4294530    2.6765850   -0.3195154 
C    -1.2523730    1.3448811   -0.0903692 
C     0.0015098    0.8481319   -0.1392400 
C    -0.3551462    3.4773313   -0.5906664 
C     0.9030117    2.9499809   -0.6370672 
C     1.0571412    1.6213364   -0.4042130 
N     0.3967993   -0.4990447    0.0733969 
C     2.1696523    0.8657098   -0.3883585 
C     1.8152583   -0.3996687   -0.1016828 
H    -0.1912717   -1.3356871    0.2931466 
C     3.5989485    1.3148531   -0.6151287 
C     4.3478451    1.5592066    0.7195963 
H     3.6395458    2.2322850   -1.2420688 
H     4.1199545    0.5187354   -1.1909795 
C     3.7905220    2.7500156    1.4857425 
N     5.7962529    1.7382380    0.4814623 
H     4.1812673    0.6766282    1.3816946 
H     6.3403118    1.0808489    1.0878415 
H     6.0723488    1.5396801   -0.5086298 
H    -2.4285430    3.1039859   -0.2799307 
H    -2.0934209    0.6961199    0.1306150 
H    -0.5031991    4.5416265   -0.7613324 
H     1.7563117    3.5898052   -0.8416706 
H     2.5048496   -1.2355134   -0.0082881 
O     3.4088502    3.9144590    0.8292821 
O     3.7166471    2.7138405    2.8693518 
H     4.6454272    2.8640318    3.2331363 
