27
Energy =
C    -1.7754473    2.0589276   -1.3631912 
C    -1.1429235    1.1385461   -2.1454105 
C     0.1232503    0.7930272   -1.8295904 
C    -1.1312131    2.6102202   -0.2901186 
C     0.1490158    2.2442633    0.0070002 
C     0.7586585    1.3251346   -0.7851830 
N     0.9554055   -0.1331406   -2.5096501 
C     1.9975501    0.8116188   -0.7034182 
C     2.1493262   -0.0646065   -1.7183764 
H     0.7569138   -0.7090738   -3.3594977 
C     3.0296546    1.1881971    0.3530114 
C     4.3885200    0.4395578    0.2926601 
H     2.5743984    0.9822921    1.3474153 
H     3.2103351    2.2855451    0.3151357 
C     5.3397349    0.8264871   -0.8561904 
N     4.1499334   -1.0139016    0.3516190 
H     4.9564926    0.7391111    1.2048677 
H     5.0693892   -1.5150982    0.4171473 
H     3.6274018   -1.2478206    1.2286492 
H    -2.7957119    2.3557029   -1.5942311 
H    -1.6384847    0.6921833   -3.0009764 
H    -1.6416096    3.3440591    0.3292569 
H     0.6613187    2.6820016    0.8585081 
H     3.0459389   -0.6436374   -1.9287070 
O     6.6404081    0.3388740   -0.8138073 
O     5.0021928    1.6775507   -1.9117416 
H     4.0422770    1.9701041   -1.8918226 
