27
Energy =
C    -1.3164552    1.9835415   -0.0931104 
C    -1.1429071    0.7935747   -0.7353812 
C     0.1079610    0.2968677   -0.8346315 
C    -0.2413521    2.6478912    0.4293769 
C     1.0135330    2.1255491    0.3148768 
C     1.1620232    0.9369089   -0.3252565 
N     0.5042527   -0.9102319   -1.4701278 
C     2.2723014    0.2231758   -0.5742646 
C     1.9220227   -0.8788166   -1.2604898 
H    -0.0814207   -1.6252388   -1.9601736 
C     3.6935296    0.5849969   -0.2044617 
C     4.4140977    1.3329113   -1.3431669 
H     4.2448968   -0.3535847    0.0333257 
H     3.7118074    1.1985003    0.7222581 
C     5.9120109    1.4056357   -1.0589888 
N     3.8165151    2.6720031   -1.5067622 
H     4.3153281    0.7500707   -2.2907554 
H     4.4050998    3.2336722   -2.1699184 
H     2.8878544    2.5733283   -1.9809841 
H    -2.3135101    2.4068323    0.0013759 
H    -1.9842990    0.2557146   -1.1592179 
H    -0.3870579    3.5988118    0.9366335 
H     1.8669210    2.6600268    0.7217079 
H     2.6136666   -1.6407192   -1.6148799 
O     6.7655871    0.5299980   -1.7158501 
O     6.4452537    2.2928446   -0.1250442 
H     5.7271892    2.8782874    0.2761884 
