27
Energy =
C    -1.5054485    2.1573761    0.7701451 
C    -1.2114398    0.8665454    0.4437811 
C     0.0366602    0.5835944    0.0154870 
C    -0.5496864    3.1300776    0.6645876 
C     0.7056424    2.8184299    0.2310428 
C     0.9739882    1.5267762   -0.0917346 
N     0.5493292   -0.6876144   -0.3581280 
C     2.1129643    0.9680313   -0.5293478 
C     1.9037565   -0.3502969   -0.6881545 
H     0.0686254   -1.6159067   -0.3857480 
C     3.4360420    1.6652235   -0.7501743 
C     4.2335870    1.7839390    0.5624190 
H     3.2541919    2.6741841   -1.1825817 
H     4.0356773    1.1097871   -1.5055814 
C     5.4220276    2.7205900    0.4032273 
N     4.6315472    0.4380055    1.0149701 
H     3.5832780    2.2560400    1.3369184 
H     5.3153482    0.0232223    0.3384655 
H     5.1206604    0.5151974    1.9392422 
H    -2.5031362    2.4133685    1.1181846 
H    -1.9562580    0.0822621    0.5261666 
H    -0.7911528    4.1569888    0.9295304 
H     1.4650656    3.5912239    0.1519934 
H     2.6604560   -1.0679930   -0.9959318 
O     5.6148176    3.7494192    1.3135704 
O     6.3351969    2.5506609   -0.6296612 
H     6.9671219    1.8012355   -0.3932137 
