27
Energy =
C    -1.4532366    1.9717767   -0.0235301 
C    -1.2032728    0.6362077   -0.1349595 
C     0.0822027    0.2263595   -0.1653055 
C    -0.4184193    2.8627426    0.0508635 
C     0.8725551    2.4240077    0.0152075 
C     1.0976406    1.0888639   -0.0925232 
N     0.5548145   -1.1071910   -0.2922023 
C     2.2556507    0.4119884   -0.1587291 
C     1.9730543   -0.8961342   -0.2903803 
H     0.0157773   -2.0008824   -0.3545540 
C     3.6557033    0.9948686   -0.1623125 
C     4.2262840    1.2986621   -1.5847112 
H     4.3196655    0.2910031    0.3877804 
H     3.6695895    1.9242513    0.4468966 
C     3.2279705    1.1081479   -2.7360701 
N     5.4560468    0.5192182   -1.8081555 
H     4.5084508    2.3749248   -1.6230362 
H     6.1504794    0.7090203   -1.0476105 
H     5.2320420   -0.5058367   -1.7962567 
H    -2.4794388    2.3298052   -0.0004653 
H    -2.0121394   -0.0832063   -0.2037479 
H    -0.6258861    3.9269062    0.1326390 
H     1.6911525    3.1345155    0.0651665 
H     2.7124167   -1.6821230   -0.4244217 
O     3.0795686   -0.1432497   -3.3249709 
O     2.3999638    2.1487992   -3.1619740 
H     2.5373927    2.9901694   -2.6247930 
