27
Energy =
C    -1.0732087    2.9330626    1.3375905 
C    -1.1875775    1.6924346    0.7832466 
C    -0.1131503    1.1719864    0.1538482 
C     0.1064799    3.6201931    1.2524691 
C     1.1787149    3.0716160    0.6123074 
C     1.0400317    1.8362314    0.0661513 
N    -0.0167160   -0.0982018   -0.4758128 
C     1.9309559    1.0860257   -0.5998351 
C     1.3421748   -0.0759019   -0.9331932 
H    -0.7417180   -0.8456682   -0.5739036 
C     3.3723958    1.4397190   -0.8857951 
C     4.2754405    1.1857384    0.3373410 
H     3.4228010    2.5082525   -1.1931210 
H     3.7473713    0.8423471   -1.7467046 
C     5.6302672    1.8614546    0.1510797 
N     4.3928838   -0.2702616    0.5433989 
H     3.8318954    1.6660787    1.2407492 
H     5.1392752   -0.4594409    1.2567430 
H     3.5050600   -0.6250512    0.9703366 
H    -1.9229261    3.3770854    1.8501958 
H    -2.1148689    1.1329842    0.8442190 
H     0.1909487    4.6089088    1.6976293 
H     2.1162154    3.6177008    0.5465769 
H     1.8301416   -0.8963197   -1.4554455 
O     5.6943347    3.2380144   -0.0193812 
O     6.8122050    1.1317996    0.1643262 
H     6.9810035    0.7770409   -0.7651163 
