27
Energy =
C    -0.9355479    3.5356186   -0.9124562 
C    -1.2125440    2.3240043   -0.3523474 
C    -0.1881035    1.4755032   -0.1245304 
C     0.3520937    3.8705053   -1.2284105 
C     1.3704083    2.9960020   -0.9877760 
C     1.0711905    1.7937186   -0.4308381 
N    -0.2596969    0.1803880    0.4546049 
C     1.8774081    0.7739527   -0.0928224 
C     1.1214207   -0.2033711    0.4396672 
H    -1.0929699   -0.3492051    0.8000222 
C     3.3851377    0.7126431   -0.2313042 
C     4.1293716    1.1905820    1.0330123 
H     3.7147302    1.3204278   -1.1015693 
H     3.6836989   -0.3364332   -0.4547968 
C     3.7223142    0.4138167    2.2821265 
N     3.9830425    2.6523204    1.1680755 
H     5.2097520    0.9544363    0.8925629 
H     2.9971713    2.8832477    1.4354814 
H     4.5660033    2.9749967    1.9785711 
H    -1.7414194    4.2390944   -1.1064250 
H    -2.2279108    2.0440222   -0.0928552 
H     0.5667789    4.8400968   -1.6716085 
H     2.3926025    3.2690930   -1.2328071 
H     1.5032693   -1.1477289    0.8253519 
O     3.9956399   -0.9443534    2.3648719 
O     3.0405892    1.0283369    3.3246132 
H     2.0617099    1.0823236    3.0837310 
