27
Energy =
C    -1.3308142    2.6484590    0.2441919 
C    -1.2228818    1.2914867    0.1657883 
C     0.0007985    0.7578628   -0.0322538 
C    -0.2195920    3.4365442    0.1223668 
C     1.0062710    2.8728186   -0.0776786 
C     1.0895300    1.5193129   -0.1499992 
N     0.3300503   -0.6195004   -0.1437516 
C     2.1603956    0.7315732   -0.3373427 
C     1.7483308   -0.5485981   -0.3398724 
H    -0.2952622   -1.4564227   -0.0942149 
C     3.5966106    1.1798509   -0.4975022 
C     4.2259050    1.6076141    0.8518657 
H     3.6250647    2.0247499   -1.2211846 
H     4.2109509    0.3665743   -0.9493288 
C     5.5468749    2.3264055    0.6248295 
N     4.4181359    0.4477272    1.7480994 
H     3.5594779    2.3553633    1.3420733 
H     3.9279603    0.6185683    2.6575979 
H     4.0281569   -0.4402387    1.3572257 
H    -2.3045306    3.1053138    0.4030598 
H    -2.0940618    0.6519424    0.2590453 
H    -0.3139893    4.5181729    0.1841775 
H     1.8866750    3.5001342   -0.1779905 
H     2.3937798   -1.4145280   -0.4707410 
O     6.5651824    1.7218722   -0.1026441 
O     5.7206815    3.6306731    1.0734836 
H     5.2580490    4.2632495    0.4386130 
