27
Energy =
C    -0.5182809    3.4953588    0.5980093 
C    -0.7965181    2.1623674    0.6579450 
C     0.1773919    1.2895922    0.3243940 
C     0.7214514    3.9234706    0.2117880 
C     1.6903687    3.0210059   -0.1171421 
C     1.3894304    1.6978194   -0.0567072 
N     0.0968105   -0.1281605    0.3341574 
C     2.1551467    0.6236399   -0.3174140 
C     1.4189026   -0.4802666   -0.0926668 
H    -0.7061328   -0.7454150    0.5952685 
C     3.6048004    0.6191637   -0.7677108 
C     3.7817087    0.7361480   -2.3047614 
H     4.0985592   -0.3134072   -0.4164721 
H     4.1477503    1.4534392   -0.2717726 
C     3.1636874    2.0057660   -2.8657936 
N     3.2949559   -0.4684741   -3.0116056 
H     4.8732838    0.8575328   -2.4984270 
H     4.0849967   -0.9263120   -3.5229477 
H     2.8945181   -1.1839442   -2.3645240 
H    -1.2865139    4.2201494    0.8561035 
H    -1.7744621    1.8055986    0.9632971 
H     0.9347794    4.9885693    0.1623123 
H     2.6731695    3.3638220   -0.4257955 
H     1.7715732   -1.5020563   -0.2054917 
O     1.8457969    2.0411582   -3.3094223 
O     3.8942460    3.1886244   -2.8453753 
H     3.3413419    3.9135478   -3.2851819 
