27
Energy =
C    -1.5040375    1.8819854   -0.3043198 
C    -1.1336462    0.6344211    0.1025360 
C     0.1805476    0.3276858    0.1088051 
C    -0.5573588    2.7905813   -0.6903731 
C     0.7652124    2.4572820   -0.6728087 
C     1.1100065    1.2076758   -0.2675321 
N     0.7740076   -0.9000576    0.5068586 
C     2.3223658    0.6431201   -0.1548291 
C     2.1647574   -0.6066450    0.3148749 
H     0.3201998   -1.7790988    0.8459507 
C     3.6565526    1.2988344   -0.4321852 
C     4.1676402    2.0699101    0.7989626 
H     3.5580715    1.9809723   -1.3052901 
H     4.4015150    0.5244888   -0.7247013 
C     5.3709548    2.9403862    0.4339983 
N     4.4659555    1.1098252    1.8784426 
H     3.3697910    2.7643491    1.1501320 
H     5.2876335    0.5174758    1.6044494 
H     4.7695429    1.6365312    2.7325130 
H    -2.5561621    2.1557057   -0.3195162 
H    -1.8709874   -0.0967451    0.4163085 
H    -0.8603754    3.7843516   -1.0118493 
H     1.5150792    3.1813751   -0.9763659 
H     2.9774714   -1.2902008    0.5496528 
O     6.6596606    2.4450587    0.5909634 
O     5.2035157    4.2133394   -0.1108956 
H     4.2315173    4.4570247   -0.2265618 
