27
Energy =
C    -1.8180338    2.2016946   -0.6925283 
C    -1.3923431    0.9187783   -0.8738412 
C    -0.1119172    0.6205346   -0.5690029 
C    -0.9576284    3.1535168   -0.2180340 
C     0.3329983    2.8256306    0.0825698 
C     0.7312498    1.5409460   -0.1000047 
N     0.5315983   -0.6396804   -0.6958125 
C     1.9291885    0.9746083    0.1131280 
C     1.8529695   -0.3206421   -0.2381974 
H     0.1452770   -1.5514560   -1.0326588 
C     3.1737755    1.6558251    0.6373420 
C     3.9976126    2.3177583   -0.4818298 
H     3.7999017    0.9036436    1.1683412 
H     2.8992439    2.4214715    1.3966045 
C     5.3128139    2.8627289    0.0922604 
N     3.1770388    3.3670539   -1.1203707 
H     4.2751078    1.5484944   -1.2400574 
H     3.7978514    4.0665207   -1.5968039 
H     2.6041623    2.9345160   -1.8838850 
H    -2.8444969    2.4690738   -0.9321043 
H    -2.0598946    0.1533693   -1.2552323 
H    -1.3033908    4.1769922   -0.0866275 
H     1.0338060    3.5797409    0.4379948 
H     2.6735449   -1.0321296   -0.1817640 
O     5.3620312    4.1430287    0.6317873 
O     6.4611664    2.0710585    0.1467595 
H     6.3030050    1.1439528   -0.2167128 
