27
Energy =
C    -1.5010839    2.6822319    0.2438497 
C    -1.2916692    2.0493711   -0.9453716 
C    -0.0732679    1.5192675   -1.1820166 
C    -0.4930265    2.7727618    1.1633660 
C     0.7302687    2.2280706    0.8995776 
C     0.9152194    1.6000485   -0.2892386 
N     0.3506115    0.8299718   -2.3496187 
C     2.0050924    0.9896753   -0.7828511 
C     1.7102343    0.5273221   -2.0111063 
H    -0.1864802    0.6052954   -3.2186663 
C     3.3607386    0.8587671   -0.1226769 
C     4.2421365    2.0973845   -0.3785472 
H     3.8657756   -0.0518179   -0.5186890 
H     3.2484345    0.6899969    0.9702811 
C     5.7214904    1.8024639   -0.1116606 
N     3.7405565    3.2151928    0.4425510 
H     4.1662886    2.3606455   -1.4600984 
H     4.0643218    3.0890227    1.4337736 
H     4.1813286    4.1065396    0.1110927 
H    -2.4727421    3.1199337    0.4595174 
H    -2.0794041    1.9720173   -1.6871437 
H    -0.6670310    3.2856500    2.1067442 
H     1.5376201    2.3086491    1.6202446 
H     2.4030374    0.0011408   -2.6645480 
O     6.0775399    0.8698905    0.8549138 
O     6.7314361    2.4875763   -0.7850716 
H     6.3640617    3.1941975   -1.4038670 
