27
Energy =
C    -1.3487690    2.1929926   -0.5278797 
C    -1.1737787    0.8714844   -0.8135758 
C     0.0676409    0.3530450   -0.7070582 
C    -0.2842446    2.9627042   -0.1477204 
C     0.9612749    2.4153504   -0.0484778 
C     1.1112028    1.0959397   -0.3338392 
N     0.4641882   -0.9854895   -0.9694868 
C     2.2140325    0.3292219   -0.3195614 
C     1.8702286   -0.9136697   -0.6998990 
H    -0.1138715   -1.8008515   -1.2779714 
C     3.6242882    0.7610109    0.0161159 
C     4.4098791    1.1891009   -1.2387444 
H     4.1421052   -0.0911790    0.5124924 
H     3.6125162    1.5934326    0.7522487 
C     5.8961286    1.3139536   -0.9178809 
N     3.8352141    2.4455228   -1.7567002 
H     4.3432628    0.3877084   -2.0119157 
H     4.4890258    2.8610347   -2.4650239 
H     2.9596671    2.2238179   -2.2864274 
H    -2.3382609    2.6368022   -0.6059572 
H    -2.0064667    0.2477863   -1.1209017 
H    -0.4306117    4.0174108    0.0734624 
H     1.8070195    3.0314179    0.2423980 
H     2.5592350   -1.7505021   -0.7964895 
O     6.6138760    0.1878845   -0.5383396 
O     6.5523792    2.5365494   -0.9852004 
H     6.4192069    3.0218959   -0.1108051 
