27
Energy =
C    -1.5288639    1.7654037   -1.4894049 
C    -0.8396427    0.6138037   -1.7339526 
C     0.3987092    0.4862508   -1.2105032 
C    -0.9584508    2.7565249   -0.7337823 
C     0.2908170    2.6035122   -0.2185819 
C     0.9536740    1.4466847   -0.4706693 
N     1.2807778   -0.6187936   -1.3542962 
C     2.1775304    1.0543805   -0.0843828 
C     2.4132367   -0.1647958   -0.5991314 
H     1.1394004   -1.5180230   -1.8680412 
C     3.1568746    1.8388902    0.7605840 
C     3.9503538    2.8760954   -0.0722112 
H     3.8369631    1.1334497    1.2852785 
H     2.5954086    2.3542786    1.5751675 
C     5.4706081    2.6904032    0.0876499 
N     3.4863751    4.2257036    0.3178803 
H     3.7543717    2.7275844   -1.1630760 
H     3.8555880    4.9115975   -0.3800323 
H     2.4109795    4.2745832    0.2628284 
H    -2.5272339    1.9024856   -1.8964657 
H    -1.2665314   -0.1824382   -2.3340798 
H    -1.4873105    3.6806338   -0.5364936 
H     0.7331107    3.4291849    0.3653389 
H     3.3340567   -0.7283037   -0.4686220 
O     6.0570438    2.6117308    1.3496500 
O     6.2580097    2.4112336   -1.0269477 
H     6.1967935    1.4235525   -1.2125704 
