27
Energy =
C    -1.3066427    2.3986936   -0.7881785 
C    -1.1849406    1.0408937   -0.7921256 
C     0.0356488    0.5074404   -0.5749321 
C    -0.2113885    3.1879358   -0.5702962 
C     1.0118465    2.6245611   -0.3535865 
C     1.1093811    1.2700040   -0.3599495 
N     0.3761926   -0.8715102   -0.5446590 
C     2.1798118    0.4796797   -0.1757308 
C     1.7844008   -0.8009404   -0.2875005 
H    -0.2372770   -1.7086501   -0.6735579 
C     3.6078603    0.9154801    0.0664784 
C     4.3881330    1.0549792   -1.2532258 
H     4.1070471    0.1647667    0.7193027 
H     3.6368870    1.8776507    0.6229619 
C     5.8739254    1.2248172   -0.9847138 
N     3.8328527    2.1768249   -2.0313177 
H     4.2865326    0.1096737   -1.8373970 
H     4.1153703    3.0803776   -1.5789512 
H     4.2763235    2.1796094   -2.9806430 
H    -2.2777619    2.8553466   -0.9619540 
H    -2.0427732    0.4003940   -0.9665190 
H    -0.3149049    4.2702930   -0.5729809 
H     1.8803723    3.2536839   -0.1880789 
H     2.4379250   -1.6669602   -0.2071799 
O     6.7817613    0.2928496   -1.4695778 
O     6.3376913    2.2998913   -0.2376755 
H     7.3460995    2.2357944   -0.1748625 
