27
Energy =
C    -1.1803739    2.3238811   -1.6356435 
C    -1.1677290    1.1306016   -0.9760958 
C    -0.0121646    0.7256709   -0.4088444 
C    -0.0428561    3.0790352   -1.7160934 
C     1.1138921    2.6462553   -1.1369524 
C     1.1012227    1.4568403   -0.4817529 
N     0.2180950   -0.4815357    0.3034815 
C     2.0928479    0.8140713    0.1545474 
C     1.6098404   -0.3493219    0.6251489 
H    -0.4492132   -1.2519412    0.5378166 
C     3.5338434    1.2603227    0.2748060 
C     4.3660895    0.8528737   -0.9647280 
H     3.9843994    0.8212216    1.1930459 
H     3.5640987    2.3642255    0.4046748 
C     4.4051549   -0.6635591   -1.1434123 
N     5.7338201    1.4120552   -0.8791931 
H     3.8556404    1.2446238   -1.8774763 
H     5.9016455    2.0644812   -1.6818119 
H     5.8924988    1.9652769   -0.0033689 
H    -2.0974839    2.6735765   -2.1030621 
H    -2.0587351    0.5157076   -0.9086911 
H    -0.0597870    4.0274202   -2.2476567 
H     2.0174697    3.2437641   -1.2076588 
H     2.2011047   -1.1063769    1.1386906 
O     3.6501479   -1.2491775   -2.1525056 
O     5.1236389   -1.4881928   -0.2777964 
H     5.6890889   -0.9354762    0.3495030 
