27
Energy =
C    -0.5096853    3.4182825    0.6557620 
C    -0.6930995    2.1262811    1.0503860 
C     0.1774743    1.1929566    0.6123208 
C     0.5341957    3.7472450   -0.1641471 
C     1.4025620    2.7872695   -0.5940385 
C     1.2023068    1.5081739   -0.1849639 
N     0.1595817   -0.1987888    0.9066062 
C     1.8922199    0.3949750   -0.4630458 
C     1.3263370   -0.6537195    0.1902006 
H    -0.5283330   -0.7644085    1.4527825 
C     3.1134948    0.2128012   -1.3421376 
C     4.2559669   -0.5207409   -0.5735776 
H     3.4815815    1.1801626   -1.7431269 
H     2.8133461   -0.4006666   -2.2198150 
C     3.7583003   -1.7665134    0.1875123 
N     4.9811915    0.4217581    0.3119875 
H     4.9758598   -0.8969982   -1.3337948 
H     4.5524625    1.3769363    0.3046414 
H     4.9205030    0.1133783    1.3137115 
H    -1.1966177    4.1895604    0.9946863 
H    -1.5157869    1.8484890    1.7005107 
H     0.6725894    4.7799237   -0.4749102 
H     2.2286567    3.0535871   -1.2451350 
H     1.6393687   -1.8621721   -0.1071411 
O     2.4476841   -1.7713855    0.7110244 
O     4.5981607   -2.8333034    0.4833181 
H     5.5469024   -2.6576376    0.1868608 
