27
Energy =
C    -1.4864386    1.3826724    0.0423626 
C    -0.8936257    0.2169297    0.4265265 
C     0.4507438    0.1265233    0.3480874 
C    -0.7266465    2.4245025   -0.4122410 
C     0.6302861    2.3086828   -0.4831241 
C     1.2005007    1.1393819   -0.0919551 
N     1.2548472   -0.9957944    0.6823349 
C     2.4926552    0.7713308   -0.0729100 
C     2.5622409   -0.4971309    0.3683795 
H     0.9696889   -1.9260235    1.0646666 
C     3.6875321    1.5924350   -0.5187154 
C     4.1130185    1.2647112   -1.9625485 
H     4.5390887    1.3861557    0.1661287 
H     3.4696713    2.6771616   -0.4220978 
C     2.9795865    1.5308872   -2.9639641 
N     4.6143133   -0.1225103   -1.9996561 
H     4.9394518    1.9548353   -2.2501532 
H     4.6445446   -0.4668922   -2.9908228 
H     5.6000084   -0.1442643   -1.6483251 
H    -2.5678744    1.4812410    0.0891880 
H    -1.4822839   -0.6222518    0.7807069 
H    -1.2063467    3.3473892   -0.7287871 
H     1.2260047    3.1340019   -0.8591642 
H     3.4776643   -1.0803707    0.4351819 
O     2.2713655    0.4754196   -3.5263741 
O     2.6299548    2.8340075   -3.3220564 
H     3.2003440    3.5192763   -2.8511295 
