27
Energy =
C    -1.5172983    2.4524156   -0.3888844 
C    -1.1598400    1.2468497   -0.9165254 
C     0.1512082    0.9293220   -0.9554553 
C    -0.5619414    3.3067449    0.0891161 
C     0.7578832    2.9614559    0.0398483 
C     1.0888408    1.7580234   -0.4948688 
N     0.7315968   -0.2726023   -1.4423189 
C     2.2937725    1.1870250   -0.6475784 
C     2.1231394   -0.0266925   -1.1975751 
H     0.2686876   -1.1105937   -1.8640533 
C     3.6217331    1.7680474   -0.2245783 
C     3.8446439    1.6281923    1.3005597 
H     3.6654838    2.8325775   -0.5483797 
H     4.4489266    1.2666502   -0.7760903 
C     4.2989062    2.9554216    1.9036590 
N     4.7705797    0.4972948    1.5318344 
H     2.8763695    1.4299422    1.8189427 
H     5.5591753    0.7741115    2.1667340 
H     4.2596310   -0.2764223    2.0160204 
H    -2.5671752    2.7327742   -0.3441755 
H    -1.9056546    0.5549322   -1.2939836 
H    -0.8568522    4.2639664    0.5148058 
H     1.5195781    3.6353997    0.4291757 
H     2.9218592   -0.7339839   -1.4124317 
O     3.4295493    4.0396567    1.8777236 
O     5.5542947    3.1246402    2.4677275 
H     5.6279961    4.0825184    2.7859652 
