27
Energy =
C    -1.1478423    1.4253206    1.0193899 
C    -0.9370135    0.2469276    0.3675421 
C     0.2573832    0.0511278   -0.2294039 
C    -0.1646737    2.3745722    1.0615123 
C     1.0344942    2.1527318    0.4510851 
C     1.2224288    0.9722616   -0.1939561 
N     0.6825850   -1.1041127   -0.9378724 
C     2.2980606    0.5070196   -0.8518167 
C     2.0162624   -0.7281285   -1.3021973 
H     0.1618605   -1.9891980   -1.1365186 
C     3.6369796    1.1922477   -1.0229914 
C     4.6575555    0.7385889    0.0482310 
H     3.5226702    2.2991502   -0.9894480 
H     4.0302128    0.9451495   -2.0337789 
C     4.2108456    1.1229729    1.4528135 
N     5.9955321    1.2962076   -0.2421499 
H     4.7107004   -0.3760768    0.0381611 
H     6.6908828    0.5206174   -0.3506806 
H     6.0234660    1.8627807   -1.1222772 
H    -2.0996357    1.6092460    1.5115959 
H    -1.7042067   -0.5189838    0.3294800 
H    -0.3363082    3.3100232    1.5892066 
H     1.8131895    2.9081913    0.4960478 
H     2.7046035   -1.3651180   -1.8529648 
O     4.0813644    2.4593308    1.8147749 
O     3.8348743    0.1396173    2.3603263 
H     2.8912742   -0.1524514    2.1522304 
