27
Energy =
C    -1.8965693    2.0948696   -0.4810019 
C    -1.4125203    0.8463410   -0.7366475 
C    -0.1033156    0.6091345   -0.5105315 
C    -1.0652871    3.0731274   -0.0098625 
C     0.2551036    2.8074599    0.2105993 
C     0.7146368    1.5571009   -0.0484312 
N     0.5948649   -0.6110761   -0.7152425 
C     1.9496251    1.0458721    0.0840907 
C     1.9197569   -0.2391468   -0.3124222 
H     0.2378656   -1.5313043   -1.0633503 
C     3.1940834    1.7681741    0.5508945 
C     3.8894311    2.5040281   -0.6077104 
H     3.8961253    1.0269061    0.9954591 
H     2.9495140    2.4894411    1.3611108 
C     5.2796034    2.9726655   -0.2011654 
N     3.0314361    3.6161348   -1.0573553 
H     4.0454679    1.7839952   -1.4459129 
H     3.1211310    4.4158881   -0.3842877 
H     3.3883381    3.9693217   -1.9775966 
H    -2.9474116    2.3138333   -0.6566233 
H    -2.0577079    0.0597049   -1.1142249 
H    -1.4579125    4.0686404    0.1852054 
H     0.9195870    3.5851869    0.5738600 
H     2.7792993   -0.9062175   -0.3349793 
O     5.4848163    3.6000859    1.0211647 
O     6.3501373    2.8156788   -1.0696488 
H     6.3140491    3.5475289   -1.7635669 
