27
Energy =
C    -1.5374160    2.8153975   -0.4021714 
C    -1.2703944    1.7592112   -1.2218113 
C    -0.0494290    1.1882885   -1.1523535 
C    -0.5825270    3.2763690    0.4613180 
C     0.6446318    2.6811408    0.5121246 
C     0.8871154    1.6290682   -0.3101654 
N     0.4296785    0.0913572   -1.9173441 
C     1.9932729    0.8802084   -0.4508901 
C     1.7623215   -0.0388020   -1.4055371 
H    -0.0598462   -0.4686441   -2.6527875 
C     3.3054333    1.0348511    0.2870987 
C     4.2117503    2.0867563   -0.3798102 
H     3.8227733    0.0484915    0.3082929 
H     3.1263461    1.3077296    1.3498639 
C     5.6611820    1.9185166    0.0555270 
N     3.6855300    3.4315901   -0.0758247 
H     4.2110143    1.9170505   -1.4841314 
H     3.9608565    3.7022475    0.9010777 
H     4.1419444    4.1289294   -0.7112339 
H    -2.5122537    3.2955103   -0.4392649 
H    -2.0150288    1.3839376   -1.9156394 
H    -0.8014091    4.1248613    1.1058741 
H     1.4114436    3.0526175    1.1845261 
H     2.4834921   -0.7768125   -1.7509487 
O     5.9845672    1.8057815    1.4014993 
O     6.6765410    1.9082534   -0.8894596 
H     6.8830691    2.8605684   -1.1526225 
