27
Energy =
C    -1.2308380    2.1685818   -0.9212057 
C    -1.1060072    0.9391235   -0.3447655 
C     0.1339208    0.4915111   -0.0556157 
C    -0.1197488    2.9185256   -1.1933776 
C     1.1228643    2.4439191   -0.8910214 
C     1.2220365    1.2169523   -0.3175064 
N     0.4823861   -0.7474035    0.5464151 
C     2.3103096    0.5359439    0.0744512 
C     1.9109198   -0.6369009    0.5965789 
H    -0.1380310   -1.5262207    0.8666186 
C     3.7463736    1.0014429   -0.0092081 
C     4.0839720    2.0344560    1.0931614 
H     3.9120892    1.4489320   -1.0162096 
H     4.4346658    0.1300789    0.0630787 
C     5.3809101    2.7622982    0.7801080 
N     4.1319944    1.3858707    2.4153059 
H     3.3100274    2.8370832    1.1148468 
H     3.2092475    0.9450576    2.6377542 
H     4.8630673    0.6349553    2.4232744 
H    -2.2178752    2.5542751   -1.1644885 
H    -1.9768012    0.3322074   -0.1209707 
H    -0.2272221    3.8987478   -1.6525334 
H     2.0046605    3.0410195   -1.1074376 
H     2.5720582   -1.3948584    1.0106751 
O     5.3366075    3.9787043    0.1121792 
O     6.6145103    2.1675417    1.0166772 
H     6.8028574    1.5002892    0.2850604 
