27
Energy =
C    -1.4085199    1.8549552   -0.3165598 
C    -1.1070269    0.5367520   -0.4893556 
C     0.1904142    0.1670144   -0.4518853 
C    -0.4117469    2.7687817   -0.1132871 
C     0.8923232    2.3700494   -0.0799794 
C     1.1694125    1.0517431   -0.2524911 
N     0.7136407   -1.1436812   -0.6146041 
C     2.3499739    0.4108294   -0.2635179 
C     2.1194791   -0.8955175   -0.4854665 
H     0.2081379   -2.0440131   -0.7814071 
C     3.7257413    1.0216906   -0.1095798 
C     4.3145311    1.4278922   -1.4736814 
H     4.3921586    0.2755296    0.3794207 
H     3.6817227    1.9021110    0.5669523 
C     5.8052714    1.7186260   -1.3709505 
N     3.5565986    2.5738275   -2.0078102 
H     4.2248780    0.5646223   -2.1762510 
H     3.8208951    3.4424013   -1.4824225 
H     3.8533699    2.7411932   -2.9990926 
H    -2.4453508    2.1808358   -0.3437969 
H    -1.8851078   -0.2006545   -0.6550696 
H    -0.6592849    3.8193100    0.0189156 
H     1.6816018    3.0985164    0.0738988 
H     2.8887795   -1.6602942   -0.5683732 
O     6.7219209    0.8221887   -1.9004880 
O     6.2684428    2.8511362   -0.7121612 
H     6.2214672    2.6972889    0.2836711 
