27
Energy =
C    -0.3059384    3.5841267    0.3608017 
C    -0.6863576    2.2836681    0.5084025 
C     0.2315115    1.3191881    0.2875524 
C     0.9772897    3.8898386    0.0018836 
C     1.8879895    2.8971761   -0.2123607 
C     1.4856180    1.6072990   -0.0667628 
N     0.0436172   -0.0838070    0.4025240 
C     2.1774400    0.4625087   -0.2089658 
C     1.3512671   -0.5636552    0.0663120 
H    -0.8140557   -0.6181247    0.6721024 
C     3.6394582    0.3153294   -0.5896277 
C     3.8868039    0.2854578   -2.1211994 
H     4.0466221   -0.6161126   -0.1389904 
H     4.2221227    1.1487633   -0.1394170 
C     3.3948790    1.5502093   -2.8092279 
N     3.3331490   -0.9327632   -2.7509516 
H     4.9918510    0.2961035   -2.2686025 
H     4.1017872   -1.4865509   -3.1952425 
H     2.8577635   -1.5616914   -2.0660789 
H    -1.0264377    4.3807833    0.5284013 
H    -1.6997122    2.0237734    0.7949809 
H     1.2731742    4.9295486   -0.1164811 
H     2.9050627    3.1461594   -0.4986279 
H     1.6293393   -1.6141054    0.0511840 
O     4.2208450    2.6691832   -2.8540795 
O     2.0995959    1.6547582   -3.3022101 
H     1.9749193    2.5728598   -3.7044416 
