27
Energy =
C    -1.2926361    1.8516331    0.9934717 
C    -1.0352197    0.6330589    0.4431117 
C     0.2043314    0.3941316   -0.0341425 
C    -0.3111555    2.7994885    1.0537071 
C     0.9355286    2.5324361    0.5675452 
C     1.1763774    1.3107282    0.0234204 
N     0.6662587   -0.8069135   -0.6309721 
C     2.3010305    0.7927326   -0.5153867 
C     2.0294237   -0.4678568   -0.9057819 
H     0.1503167   -1.6986729   -0.8142302 
C     3.6947938    1.4057539   -0.6074404 
C     3.7896393    2.8380398   -1.2149495 
H     4.3098859    0.7458044   -1.2588715 
H     4.1823800    1.3324235    0.3854845 
C     4.0652255    3.9434993   -0.1876296 
N     2.5991840    3.1143245   -2.0429089 
H     4.6970473    2.8765718   -1.8632544 
H     2.6722568    4.0815530   -2.4447144 
H     2.5956938    2.4653041   -2.8654276 
H    -2.2846349    2.0718322    1.3812512 
H    -1.8039141   -0.1306194    0.3857807 
H    -0.5274937    3.7753457    1.4841864 
H     1.6948569    3.2984948    0.6002655 
H     2.7490172   -1.1535680   -1.3479385 
O     3.8203785    5.2696237   -0.5154628 
O     4.6653437    3.6750651    1.0382566 
H     4.0143532    3.2087204    1.6495607 
