27
Energy =
C    -1.4195344    1.8177728   -1.2070192 
C    -1.1401693    0.5963039   -0.6696103 
C     0.1187250    0.3564465   -0.2469051 
C    -0.4383831    2.7645567   -1.3136096 
C     0.8276261    2.4966210   -0.8822508 
C     1.0809517    1.2752467   -0.3451392 
N     0.6199299   -0.8460953    0.3189906 
C     2.2264891    0.7669345    0.1358880 
C     1.9961980   -0.4991226    0.5279668 
H     0.1186309   -1.7388604    0.5324558 
C     3.5781383    1.4478718    0.1695211 
C     4.3608586    1.2296480   -1.1475185 
H     4.1745814    1.0530497    1.0235740 
H     3.4373312    2.5347015    0.3537498 
C     4.6480861   -0.2497360   -1.3895637 
N     5.5858478    2.0662598   -1.1689663 
H     3.7162549    1.5425553   -2.0023159 
H     5.6790169    2.6751498   -0.3218251 
H     6.4559360    1.4843031   -1.2157152 
H    -2.4250938    2.0374571   -1.5568648 
H    -1.9043273   -0.1688751   -0.5851547 
H    -0.6675776    3.7344224   -1.7485539 
H     1.6066064    3.2471410   -0.9762347 
H     2.7584296   -1.1843795    0.9001884 
O     4.4084558   -0.8131041   -2.6343999 
O     5.1549330   -1.0496727   -0.3706015 
H     6.1482932   -0.8881811   -0.2955285 
