27
Energy =
C    -1.0065472    2.0357553    1.5650178 
C    -1.0417639    0.7608842    1.0831353 
C    -0.0490036    0.3598040    0.2617278 
C     0.0172860    2.8745572    1.2208299 
C     1.0112522    2.4446732    0.3913434 
C     0.9518917    1.1728502   -0.0816771 
N     0.1113062   -0.9226803   -0.3281131 
C     1.7959684    0.5129322   -0.8905530 
C     1.3384138   -0.7405831   -1.0493262 
H    -0.5004155   -1.7678050   -0.2569891 
C     3.0898546    1.0300444   -1.4849181 
C     4.3712777    0.6883260   -0.6598180 
H     3.0237486    2.1297274   -1.6254635 
H     3.1644662    0.6221080   -2.5188910 
C     5.4265592    0.0139360   -1.5271926 
N     4.0557176   -0.1243094    0.5318929 
H     4.8373296    1.6462526   -0.3291357 
H     4.9451608   -0.3863453    1.0205512 
H     3.5196792    0.4618409    1.2143982 
H    -1.7937309    2.3849196    2.2284831 
H    -1.8424919    0.0802160    1.3513427 
H     0.0406429    3.8885608    1.6126732 
H     1.8268205    3.1100817    0.1270911 
H     1.8554901   -1.5204455   -1.6072449 
O     5.1297754   -1.1423448   -2.2448943 
O     6.7047399    0.5569964   -1.6071067 
H     7.2732167   -0.0206341   -2.2129889 
