27
Energy =
C    -1.2676516    2.4412166   -1.1510948 
C    -1.1790965    1.1562191   -0.7045797 
C     0.0344391    0.6848644   -0.3486400 
C    -0.1472318    3.2208974   -1.2328930 
C     1.0682139    2.7210967   -0.8675246 
C     1.1327744    1.4391292   -0.4239888 
N     0.3418354   -0.6162345    0.1320777 
C     2.1891758    0.7196680   -0.0105928 
C     1.7590642   -0.5112646    0.3196768 
H    -0.2955059   -1.4277477    0.3031706 
C     3.6353143    1.1618419    0.0392850 
C     4.3710282    0.8219977   -1.2708861 
H     4.1339444    0.6481623    0.8931553 
H     3.6998603    2.2516767    0.2456730 
C     5.8768576    0.9710332   -1.1086826 
N     3.8323191    1.6511625   -2.3650250 
H     4.2050676   -0.2558402   -1.5092573 
H     4.1222673    2.6480696   -2.2212438 
H     4.2815673    1.3571425   -3.2657023 
H    -2.2324968    2.8462655   -1.4459515 
H    -2.0573273    0.5232114   -0.6365496 
H    -0.2245252    4.2435753   -1.5940367 
H     1.9565229    3.3399189   -0.9396731 
H     2.3943930   -1.3225715    0.6687424 
O     6.6346420   -0.1210623   -0.7129654 
O     6.4974174    2.2036271   -1.2652896 
H     6.3520562    2.7522570   -0.4312581 
