27
Energy =
C    -1.3187697    3.0585439    0.4954524 
C    -1.2117929    1.7958257    0.9968141 
C    -0.0796064    1.1035523    0.7514932 
C    -0.2970082    3.5982457   -0.2350094 
C     0.8375367    2.8770660   -0.4709237 
C     0.9233364    1.6208781    0.0383195 
N     0.2308287   -0.2118623    1.1873812 
C     1.9157027    0.7168750   -0.0427863 
C     1.5418571   -0.3822323    0.6360288 
H    -0.3464199   -0.8749154    1.7538615 
C     3.2571680    0.8750642   -0.7271634 
C     4.3366099    1.4095440    0.2340631 
H     3.1845497    1.5415108   -1.6154151 
H     3.5732370   -0.1151688   -1.1217492 
C     4.1053816    2.8776055    0.5639862 
N     5.6544423    1.1914684   -0.3872840 
H     4.2800962    0.8613321    1.2047831 
H     6.3927581    1.6924490    0.1625636 
H     5.8948081    0.1734640   -0.3420257 
H    -2.2176830    3.6406854    0.6832792 
H    -2.0108543    1.3546325    1.5829122 
H    -0.3854383    4.6112648   -0.6224349 
H     1.6510999    3.3138511   -1.0422914 
H     2.1482791   -1.2764107    0.7622245 
O     3.9322950    3.8169012   -0.4446004 
O     4.0624532    3.2986503    1.8842259 
H     5.0058549    3.3587433    2.2367025 
