27
Energy =
C    -1.1304950    3.4597283    0.6403694 
C    -1.1648515    2.1395577    0.9799664 
C    -0.1098373    1.3663685    0.6475741 
C    -0.0475509    3.9742391   -0.0180410 
C     1.0071473    3.1721880   -0.3415485 
C     0.9492350    1.8606510    0.0047624 
N     0.0592214   -0.0187957    0.9150315 
C     1.8435437    0.8795027   -0.1897793 
C     1.3536644   -0.2529446    0.3442387 
H    -0.5855346   -0.6848016    1.3997107 
C     3.2007578    1.0096142   -0.8417865 
C     4.2521969    1.5901099    0.1247324 
H     3.1114551    1.6522399   -1.7455779 
H     3.5510894    0.0145561   -1.1980648 
C     5.5370309    1.9617118   -0.6058806 
N     4.5075537    0.6145442    1.1999705 
H     3.8721562    2.5435400    0.5602214 
H     5.3467240    0.9284690    1.7483457 
H     3.7091687    0.6401013    1.8761720 
H    -1.9668580    4.1059385    0.8954825 
H    -2.0145892    1.7160888    1.5048066 
H    -0.0262153    5.0283921   -0.2844344 
H     1.8672492    3.5832591   -0.8621877 
H     1.8726281   -1.2093582    0.3640122 
O     5.7681791    1.5595021   -1.9183660 
O     6.5005488    2.7187893    0.0481631 
H     7.2830054    2.8611330   -0.5781753 
