27
Energy =
C    -0.8900735    3.0744533    0.2428825 
C    -0.9682174    1.7754856    0.6489116 
C     0.0590519    0.9503511    0.3577286 
C     0.2072099    3.5176786   -0.4421855 
C     1.2342065    2.6658171   -0.7250286 
C     1.1362850    1.3773571   -0.3073147 
N     0.1679948   -0.4285581    0.6882773 
C     1.9862172    0.3532391   -0.4593006 
C     1.4647452   -0.7489242    0.1432920 
H    -0.5142140   -1.0657539    1.1573072 
C     3.3255912    0.3150437   -1.1716567 
C     4.4361225   -0.3067802   -0.2800608 
H     3.6424207    1.3314293   -1.4862443 
H     3.2088718   -0.2948848   -2.0935182 
C     3.9862729   -1.5858230    0.4481980 
N     4.9047790    0.7215811    0.6636715 
H     5.2792739   -0.5966964   -0.9473544 
H     4.1257759    0.9444653    1.3315576 
H     5.6741717    0.3239821    1.2535592 
H    -1.7036981    3.7601082    0.4652356 
H    -1.8313714    1.4077299    1.1932740 
H     0.2615421    4.5552243   -0.7625820 
H     2.1022231    3.0239026   -1.2685887 
H     1.9462003   -1.9189569   -0.0722009 
O     2.6354847   -1.7154495    0.8292320 
O     4.8846919   -2.5760874    0.8266603 
H     5.8346283   -2.3465954    0.5772381 
