27
Energy =
C    -0.4082410    1.8539252    2.2411500 
C    -0.8160081    1.1457772    1.1500597 
C     0.0781337    0.9165905    0.1654564 
C     0.8772455    2.3126122    2.3236218 
C     1.7623259    2.0684333    1.3152232 
C     1.3341505    1.3618510    0.2370260 
N    -0.1395053    0.1971019   -1.0401417 
C     1.9974812    0.9860925   -0.8693194 
C     1.1556040    0.2834678   -1.6480386 
H    -1.0117745   -0.2625316   -1.3885955 
C     3.4526846    1.2455998   -1.1975889 
C     4.3666067    0.0961454   -0.7151753 
H     3.7819059    2.2116858   -0.7563432 
H     3.5548615    1.3568262   -2.2997832 
C     4.3958063   -0.0206973    0.8092828 
N     5.7162956    0.2599862   -1.2891304 
H     3.9465844   -0.8777827   -1.0647277 
H     5.7004469   -0.0132899   -2.3010891 
H     6.0248073    1.2603316   -1.2543275 
H    -1.1054643    2.0480938    3.0522338 
H    -1.8299720    0.7688039    1.0721059 
H     1.1995863    2.8671590    3.2017019 
H     2.7850555    2.4242221    1.3926081 
H     1.4185324   -0.1708801   -2.6003286 
O     3.5892392   -0.9680634    1.4275780 
O     5.1305651    0.8533977    1.6104290 
H     5.7502592    1.4174762    1.0518790 
