27
Energy =
C    -1.1476500    1.6415813    1.1127139 
C    -0.9994211    0.4159144    0.5353002 
C     0.1742966    0.1300488   -0.0665196 
C    -0.1248397    2.5480343    1.0762288 
C     1.0516839    2.2357914    0.4612528 
C     1.1782493    1.0088259   -0.1073167 
N     0.5311898   -1.0818891   -0.7158590 
C     2.2162450    0.4594209   -0.7608973 
C     1.8701506   -0.7864738   -1.1313008 
H    -0.0357681   -1.9494651   -0.8553574 
C     3.5735173    1.0785017   -1.0198461 
C     4.6147133    0.6387139    0.0274200 
H     3.5123573    2.1893127   -1.0400231 
H     3.9133373    0.7731229   -2.0329194 
C     4.3106302    1.2344832    1.3956846 
N     5.9512534    1.0374951   -0.4473287 
H     4.5774059   -0.4704059    0.1489888 
H     6.6630410    0.7740167    0.2768396 
H     6.1972519    0.4755582   -1.2964131 
H    -2.0803727    1.8973297    1.6088762 
H    -1.7990409   -0.3164363    0.5593404 
H    -0.2456525    3.5212464    1.5458851 
H     1.8612526    2.9583127    0.4437873 
H     2.5159803   -1.4835662   -1.6602223 
O     4.2343435    0.4116083    2.5106546 
O     4.1678031    2.6066783    1.5570054 
H     5.0884430    3.0032622    1.6760151 
