27
Energy =
C    -0.2500732    0.7212843    2.8446301 
C    -0.4687834   -0.1706716    1.8380609 
C     0.2382673   -0.0341086    0.6968991 
C     0.6685833    1.7215501    2.6906272 
C     1.3730268    1.8383674    1.5286621 
C     1.1354102    0.9416613    0.5347236 
N     0.1682544   -0.8606477   -0.4555454 
C     1.6895872    0.8318695   -0.6857582 
C     1.1466601   -0.2356280   -1.3004323 
H    -0.4435717   -1.6898693   -0.6367659 
C     2.7601821    1.7224345   -1.2949880 
C     4.1449248    1.0461652   -1.5091882 
H     2.8831091    2.6427555   -0.6874077 
H     2.3873344    2.0877144   -2.2764185 
C     4.2515524   -0.3719360   -0.9589500 
N     5.1978515    1.9338130   -0.9858567 
H     4.3004219    0.9367194   -2.6073276 
H     5.1942735    1.8756206    0.0623254 
H     6.1285564    1.5554630   -1.2827331 
H    -0.8035767    0.6326417    3.7760009 
H    -1.1883438   -0.9749294    1.9473759 
H     0.8438613    2.4241177    3.5017935 
H     2.1095323    2.6277733    1.4240811 
H     1.4815449   -0.6264140   -2.2639326 
O     3.8624373   -1.4450785   -1.7535223 
O     4.6359944   -0.6065009    0.3538573 
H     4.6098712   -1.6035962    0.5232845 
