27
Energy =
C    -1.4776705    2.3600599   -0.0783740 
C    -1.2056064    1.0847582    0.3023773 
C     0.0676832    0.6637799    0.4472086 
C    -0.4817720    3.2598761   -0.2861619 
C     0.9531739    2.9410104    0.0532869 
C     1.1093151    1.4582716    0.2286359 
N     0.4772657   -0.6986101    0.4667824 
C     2.1941143    0.7144296   -0.0610838 
C     1.8552283   -0.5749794    0.1048642 
H    -0.0922828   -1.5475966    0.6612608 
C     3.5639226    1.1409815   -0.6222723 
C     3.8544744    2.5842492   -1.1854293 
H     3.7785388    0.4388181   -1.4518244 
H     4.2805161    0.9222040    0.1972579 
C     4.6112069    3.4616975   -0.1637803 
N     2.6078237    3.1661906   -1.7532580 
H     4.6143744    2.5084135   -2.0035387 
H     1.8110997    3.0473136   -0.8761611 
H     2.6771493    4.2081736   -1.8048558 
H    -2.5065026    2.6695964   -0.2131645 
H    -2.0119512    0.3743709    0.4187207 
H    -0.6969969    4.2999103   -0.4689386 
H     1.0154094    3.4357425    1.0858167 
H     2.5089176   -1.4151636   -0.0995156 
O     4.3857324    4.8305970   -0.0594234 
O     5.7579039    2.9362402    0.4323409 
H     6.4943601    2.9362985   -0.2527540 
