27
Energy =
C    -1.3006385    2.5704823   -0.6293597 
C    -1.2314366    1.2851803   -0.1798774 
C    -0.0124343    0.7297716   -0.0157117 
C    -0.1562366    3.2659761   -0.9066724 
C     1.0641615    2.6816744   -0.7339533 
C     1.1087364    1.4024942   -0.2810030 
N     0.2775971   -0.5903096    0.4220511 
C     2.1652296    0.6097725   -0.0409028 
C     1.7109101   -0.5882330    0.3666547 
H    -0.3784858   -1.3524273    0.7091474 
C     3.6273397    0.9569466   -0.2380798 
C     4.1783815    0.6804298   -1.6705022 
H     4.2268672    0.3728558    0.4942765 
H     3.7835051    2.0200593    0.0528106 
C     4.7912945    1.9268372   -2.2886660 
N     3.1549091    0.0715145   -2.5439280 
H     5.0303219   -0.0336322   -1.5752059 
H     2.4497442    0.8028075   -2.8069945 
H     3.6061810   -0.2230267   -3.4425900 
H    -2.2695330    3.0422359   -0.7724346 
H    -2.1293073    0.7171246    0.0384655 
H    -0.2181881    4.2885098   -1.2718002 
H     1.9714075    3.2324853   -0.9655142 
H     2.3382579   -1.4462506    0.5966525 
O     4.0108119    3.0458676   -2.5549491 
O     6.1466638    1.9629055   -2.5800184 
H     6.3649260    2.8650362   -2.9841496 
