27
Energy =
C    -1.2843798    2.4075699   -1.5469952 
C    -1.2294199    1.1511943   -1.0208184 
C    -0.0600384    0.7276607   -0.4969957 
C    -0.1748788    3.2068388   -1.5396294 
C     0.9962214    2.7554064   -1.0056729 
C     1.0274087    1.5010223   -0.4848539 
N     0.2099320   -0.5394995    0.0853958 
C     2.0402492    0.8260741    0.0841083 
C     1.5933793   -0.3936693    0.4311858 
H    -0.4287918   -1.3563797    0.2219555 
C     3.4635724    1.3009790    0.2778369 
C     4.4139649    0.7575897   -0.8158398 
H     3.8125140    0.9521634    1.2769438 
H     3.5129749    2.4110193    0.3120058 
C     5.8631574    1.0130309   -0.4466001 
N     4.0880363    1.3419946   -2.1294618 
H     4.3275450   -0.3530536   -0.8747999 
H     3.1165800    1.0766704   -2.4137578 
H     4.1360185    2.3880258   -2.0761257 
H    -2.2138750    2.7745696   -1.9752361 
H    -2.0993048    0.5031678   -1.0212881 
H    -0.2260866    4.2075604   -1.9623324 
H     1.8748319    3.3925170   -1.0051579 
H     2.1954587   -1.1685502    0.9012224 
O     6.3808842    2.3053888   -0.4567409 
O     6.6642944   -0.0416688   -0.0242917 
H     7.5901745    0.3099569    0.1834307 
