27
Energy =
C    -1.0568313    1.9764874   -1.9320087 
C    -0.9597636    0.7093964   -1.4391307 
C     0.1552606    0.3715684   -0.7583117 
C    -0.0445647    2.8732242   -1.7307254 
C     1.0717252    2.5079550   -1.0372863 
C     1.1498500    1.2380023   -0.5599156 
N     0.4444965   -0.8796967   -0.1560942 
C     2.1274361    0.6447023    0.1462639 
C     1.7332413   -0.6170409    0.4192515 
H    -0.1294978   -1.7538509   -0.1313719 
C     3.4088399    1.3231319    0.6125189 
C     4.5470983    0.3696808    1.0446655 
H     3.1553867    1.9974441    1.4594224 
H     3.7932255    1.9689852   -0.2071191 
C     4.9290444   -0.6187502   -0.0564278 
N     4.1736690   -0.2858032    2.3121864 
H     5.4685267    0.9770345    1.2047658 
H     4.9062122   -0.9930460    2.5652760 
H     4.1728959    0.4244910    3.0818250 
H    -1.9439375    2.2752893   -2.4847333 
H    -1.7554757   -0.0131289   -1.5856095 
H    -0.1309310    3.8832710   -2.1239553 
H     1.8701325    3.2253513   -0.8743994 
H     2.3037062   -1.3464916    0.9937427 
O     4.6605919   -1.9756502    0.0715187 
O     5.5438389   -0.1651658   -1.2152756 
H     4.8525513    0.2811166   -1.7987254 
