27
Energy =
C    -0.7063769    3.9461816   -0.3609639 
C    -0.9763043    2.6822527   -0.7938907 
C     0.0418496    1.7992945   -0.8652046 
C     0.5677449    4.2969061   -0.0104287 
C     1.5803662    3.3857424   -0.0917389 
C     1.2888692    2.1324397   -0.5251256 
N    -0.0280024    0.4430461   -1.2817682 
C     2.0892857    1.0650561   -0.6917735 
C     1.3391419    0.0394049   -1.1322731 
H    -0.8531637   -0.1075277   -1.6147623 
C     3.5721631    0.9718841   -0.3984539 
C     3.8474825    0.4755620    1.0347489 
H     4.0761848    1.9505539   -0.5577954 
H     4.0343170    0.2669892   -1.1240620 
C     3.3379533    1.4610359    2.0757455 
N     5.2941708    0.2370182    1.1730017 
H     3.2906774   -0.4744709    1.2156661 
H     5.5068471   -0.0113158    2.1690492 
H     5.5588559   -0.6003919    0.6034345 
H    -1.5090898    4.6764732   -0.2896626 
H    -1.9826327    2.3863081   -1.0716968 
H     0.7738341    5.3055381    0.3407840 
H     2.5897518    3.6655907    0.1934406 
H     1.7085216   -0.9638173   -1.3339119 
O     3.8679806    2.7452975    2.1660355 
O     2.2848136    1.1012789    2.9074743 
H     2.0778523    1.8665664    3.5366817 
