27
Energy =
C    -1.3795609    2.5314399    0.5524603 
C    -1.1960884    1.1805346    0.5786140 
C     0.0227020    0.6947319    0.2627727 
C    -0.3458310    3.3612202    0.2151492 
C     0.8774438    2.8456405   -0.0983793 
C     1.0354667    1.4973633   -0.0677177 
N     0.4256942   -0.6674377    0.2391680 
C     2.1218424    0.7528136   -0.3238228 
C     1.8012937   -0.5405963   -0.1451969 
H    -0.1307973   -1.5277476    0.4492288 
C     3.4982565    1.2579403   -0.6910614 
C     4.2924383    1.7168823    0.5475897 
H     3.3994173    2.0918607   -1.4205414 
H     4.0734521    0.4552807   -1.2082226 
C     5.5576415    2.4613551    0.1382591 
N     4.6046287    0.5406862    1.3792091 
H     3.6835720    2.4449860    1.1327913 
H     5.3061790    0.8099521    2.1120899 
H     3.7449492    0.2535986    1.9034261 
H    -2.3514756    2.9501610    0.8016100 
H    -2.0044239    0.5085395    0.8464089 
H    -0.4999709    4.4375591    0.1967999 
H     1.6972845    3.5058453   -0.3651893 
H     2.4917643   -1.3751944   -0.2517382 
O     6.2440578    2.1218261   -1.0211235 
O     6.0524367    3.4811724    0.9409790 
H     5.5251719    4.3245661    0.7713079 
