27
Energy =
C    -1.4704981    2.4108476   -1.3850794 
C    -0.8416470    1.3435110   -1.9548074 
C     0.3390197    0.9455181   -1.4366064 
C    -0.9060839    3.0551086   -0.3185980 
C     0.2904914    2.6351295    0.1852204 
C     0.8957733    1.5675138   -0.3961258 
N     1.1587061   -0.1229599   -1.8880541 
C     2.0627158    0.9737028   -0.1007409 
C     2.2599211   -0.0294810   -0.9743271 
H     0.9992087   -0.8009835   -2.6682298 
C     3.0434787    1.3855036    0.9752004 
C     3.9776007    2.5173854    0.4892827 
H     3.6415564    0.5011665    1.2891546 
H     2.4830575    1.7171151    1.8760091 
C     4.8489974    2.0913920   -0.6931610 
N     4.7814973    3.0178730    1.6193358 
H     3.3594779    3.3590364    0.0940511 
H     4.1550092    3.4983245    2.3076737 
H     5.2475992    2.2302809    2.1290136 
H    -2.4221771    2.7532297   -1.7842075 
H    -1.2713065    0.8255026   -2.8056029 
H    -1.4124664    3.9087515    0.1265297 
H     0.7430807    3.1499579    1.0273434 
H     3.1479760   -0.6577208   -1.0140758 
O     4.6272861    2.6671428   -1.9383362 
O     5.8172052    1.0921386   -0.5807537 
H     5.9338581    0.7962183    0.3744511 
