27
Energy =
C    -1.5814609    2.4300097   -0.2652507 
C    -1.2746870    1.1438345   -0.5981996 
C     0.0270962    0.7980425   -0.6819364 
C    -0.5857223    3.3352057   -0.0206776 
C     0.7237175    2.9599392   -0.1104496 
C     1.0041186    1.6754073   -0.4484529 
N     0.5583174   -0.4825947   -0.9913798 
C     2.1895530    1.0616572   -0.5904349 
C     1.9664124   -0.2265081   -0.9008338 
H     0.0576581   -1.3715719   -1.2225803 
C     3.5538251    1.6745903   -0.3760751 
C     3.9178651    1.7462828    1.1299204 
H     3.5747336    2.6830026   -0.8474877 
H     4.3156064    1.0824503   -0.9307029 
C     4.3347574    3.1530570    1.5353945 
N     4.9472454    0.7320684    1.4262796 
H     3.0197132    1.5414744    1.7590399 
H     5.8452038    1.0293584    0.9722943 
H     5.1542885    0.7647661    2.4534781 
H    -2.6226169    2.7349027   -0.1888949 
H    -2.0524970    0.4115102   -0.7883360 
H    -0.8394517    4.3577330    0.2521818 
H     1.5172933    3.6757425    0.0939039 
H     2.7403504   -0.9784921   -1.0416367 
O     3.4036205    4.1825641    1.4941584 
O     5.6300324    3.4379014    1.9373575 
H     5.6799171    4.4250187    2.1552045 
