27
Energy =
C    -0.6447926    2.2773161    2.0377160 
C    -0.7854635    1.0059790    1.5675427 
C     0.1133814    0.5527086    0.6689076 
C     0.3845110    3.0633592    1.6003429 
C     1.2804418    2.5832836    0.6910220 
C     1.1239407    1.3114026    0.2374704 
N     0.1404919   -0.7294051    0.0590938 
C     1.8554116    0.6098899   -0.6462216 
C     1.2995233   -0.6095361   -0.7802540 
H    -0.5136220   -1.5364812    0.1854805 
C     3.0982819    1.0704372   -1.3855425 
C     4.4020665    0.4412931   -0.8261128 
H     3.1860891    2.1770911   -1.3760199 
H     2.9922608    0.7925844   -2.4594802 
C     4.3784511   -1.0955304   -0.9621832 
N     4.7482904    1.0321020    0.4936786 
H     5.2167100    0.7300058   -1.5291114 
H     4.0154866    1.6896120    0.8466251 
H     4.9089411    0.3507481    1.2591429 
H    -1.3547613    2.6678114    2.7626760 
H    -1.5974236    0.3697070    1.9032316 
H     0.4891398    4.0774591    1.9790496 
H     2.0927179    3.2157357    0.3479112 
H     1.6899441   -1.4020285   -1.4261941 
O     4.1241175   -1.6075201   -2.2276192 
O     4.4740787   -2.0218945    0.0765278 
H     4.8105845   -1.6486931    0.9402759 
