27
Energy =
C    -0.5780916    0.3501624    2.6764840 
C    -0.6654402   -0.4121813    1.5509894 
C     0.1658097   -0.1364252    0.5245579 
C     0.3335102    1.3653147    2.7509896 
C     1.1636692    1.6257960    1.7008138 
C     1.0606489    0.8535243    0.5854331 
N     0.2283710   -0.8065302   -0.7247395 
C     1.7486151    0.8992046   -0.5712573 
C     1.2783869   -0.0750082   -1.3754324 
H    -0.3520666   -1.6027188   -1.0767028 
C     2.8322472    1.8982687   -0.9584087 
C     4.2053967    1.2919836   -1.3745657 
H     2.9918146    2.6247291   -0.1362969 
H     2.4435448    2.5115391   -1.7997516 
C     4.3036713   -0.2201294   -1.2152515 
N     5.2809664    1.9970030   -0.6564143 
H     4.3373819    1.4820685   -2.4643279 
H     5.2847599    1.6756392    0.3435957 
H     6.2030668    1.6963893   -1.0520599 
H    -1.2332901    0.1470538    3.5197251 
H    -1.3812135   -1.2238559    1.4772049 
H     0.4007656    1.9655798    3.6551110 
H     1.8874024    2.4292346    1.7796851 
H     1.6919384   -0.3221251   -2.3555508 
O     4.5164918   -0.7902471    0.0305242 
O     4.0405496   -1.0453947   -2.3021539 
H     4.8419440   -1.0397563   -2.9188471 
