27
Energy =
C    -1.1655638    2.2722161    0.4261135 
C    -1.1539547    0.9940686   -0.0472741 
C     0.0294058    0.4582464   -0.4135693 
C    -0.0004751    2.9810425    0.5231562 
C     1.1827838    2.4174946    0.1461578 
C     1.1714549    1.1430711   -0.3229251 
N     0.2578992   -0.8492418   -0.9197593 
C     2.1836649    0.3683245   -0.7483632 
C     1.6789435   -0.8265134   -1.1044610 
H    -0.4288020   -1.6143792   -1.1096298 
C     3.6565801    0.7207110   -0.7933427 
C     4.4100457    0.2070586    0.4582863 
H     3.7950878    1.8194092   -0.8957262 
H     4.0941789    0.2595532   -1.7064548 
C     3.9209042    0.8871901    1.7366360 
N     5.8776503    0.3125877    0.2640807 
H     4.1670115   -0.8723165    0.5965466 
H     6.1327414    0.6762746   -0.6843771 
H     6.3205934    0.9643446    0.9527330 
H    -2.1034738    2.7276108    0.7330747 
H    -2.0681965    0.4161065   -0.1257381 
H    -0.0142578    3.9971053    0.9096587 
H     2.1054382    2.9822879    0.2344148 
H     2.2647868   -1.6665446   -1.4701400 
O     3.3739051    0.1261102    2.7605074 
O     4.0135362    2.2659630    1.8981859 
H     4.9602739    2.5120382    2.1389993 
