27
Energy =
C    -1.4656437    1.8736126   -1.6241370 
C    -0.7546275    0.7784260   -2.0191277 
C     0.4684107    0.5819521   -1.4813950 
C    -0.9306102    2.7431613   -0.7095892 
C     0.3047862    2.5230618   -0.1839685 
C     0.9879723    1.4220022   -0.5859679 
N     1.3711135   -0.4774300   -1.7679008 
C     2.2048873    0.9863741   -0.2259558 
C     2.4755795   -0.1332262   -0.9186507 
H     1.2595271   -1.2902366   -2.4155115 
C     3.1471712    1.6400755    0.7606888 
C     3.9678325    2.7809754    0.1142153 
H     3.8128326    0.8632330    1.1954925 
H     2.5515312    2.0313912    1.6176761 
C     5.4835719    2.5543462    0.3103731 
N     3.4759927    4.0642426    0.6638858 
H     3.8206126    2.7826650   -0.9936381 
H     3.8782933    4.8387999    0.0874099 
H     2.4027452    4.1142997    0.5482729 
H    -2.4523767    2.0636482   -2.0382959 
H    -1.1518529    0.0806118   -2.7484176 
H    -1.4771824    3.6233636   -0.3943040 
H     0.7246413    3.2571372    0.5279605 
H     3.4093842   -0.6892647   -0.8620765 
O     6.1259965    1.5907925   -0.4641836 
O     6.2165245    3.1954835    1.3094461 
H     5.6294090    3.8846237    1.7584044 
