27
Energy =
C    -1.3093950    3.0508922   -0.0203882 
C    -1.3365168    1.6879164   -0.0010283 
C    -0.1684126    1.0232819   -0.1245235 
C    -0.1214022    3.7144327   -0.1577130 
C     1.0459604    3.0194671   -0.2791096 
C     0.9940144    1.6632078   -0.2621327 
N     0.0236398   -0.3842608   -0.1133712 
C     1.9846902    0.7621269   -0.3544428 
C     1.4481154   -0.4672002   -0.2562045 
H    -0.6829980   -1.1509470   -0.0334789 
C     3.4679216    1.0494234   -0.4822368 
C     4.2090748    1.2615685    0.8698702 
H     3.6093523    1.9305268   -1.1459635 
H     3.9474998    0.2064939   -1.0267305 
C     3.3350454    1.1032275    2.1130861 
N     4.9074246    2.5602033    0.8325120 
H     4.9740821    0.4557915    0.9638544 
H     4.1922714    3.3241107    0.9043477 
H     5.4934791    2.6532746    1.6965244 
H    -2.2349916    3.6119408    0.0808218 
H    -2.2689530    1.1459692    0.1152689 
H    -0.1054144    4.8013873   -0.1625656 
H     1.9890539    3.5476263   -0.3747117 
H     2.0141573   -1.3958995   -0.2477725 
O     3.2129855   -0.1403587    2.7205806 
O     2.6241808    2.1807005    2.6273933 
H     2.0800989    1.8572250    3.4167865 
