27
Energy =
C    -1.0112181    3.5884225   -0.2263637 
C    -1.2150677    2.2705001   -0.5057820 
C    -0.1394816    1.4597588   -0.5891292 
C     0.2557100    4.0637231   -0.0342731 
C     1.3283861    3.2242472   -0.1275438 
C     1.1034783    1.9145580   -0.4106542 
N    -0.1392280    0.0663444   -0.8633954 
C     1.9687467    0.8938065   -0.5607352 
C     1.2633975   -0.2216861   -0.8208679 
H    -0.9462676   -0.5722573   -1.0514218 
C     3.4808789    0.9353207   -0.4636759 
C     3.9787885    0.8559096    0.9928257 
H     3.8786791    1.8475893   -0.9605376 
H     3.9000887    0.0731601   -1.0296449 
C     3.7952470    2.1854778    1.7019287 
N     5.3859492    0.4183616    0.9834725 
H     3.3681474    0.1087412    1.5527293 
H     5.9775568    1.1727306    0.5559887 
H     5.7191168    0.3227556    1.9723741 
H    -1.8612886    4.2616211   -0.1449036 
H    -2.2148842    1.8759290   -0.6532637 
H     0.4074786    5.1134185    0.2094155 
H     2.3313978    3.5990429    0.0572630 
H     1.6912504   -1.2089862   -0.9821859 
O     4.5930857    3.2719371    1.3734991 
O     2.6983761    2.3921660    2.5218334 
H     2.9052036    2.0392833    3.4461109 
