27
Energy =
C    -1.3783350    1.0069868   -0.4851561 
C    -0.9650626   -0.0021483    0.3331169 
C     0.3288871   -0.0258886    0.7161164 
C    -0.4930574    1.9624666   -0.9016982 
C     0.8098862    1.9160801   -0.5010911 
C     1.1985657    0.9037219    0.3163723 
N     0.9591357   -0.9872324    1.5510345 
C     2.4040571    0.6336463    0.8429869 
C     2.3031859   -0.4891086    1.5761895 
H     0.5507556   -1.8289409    2.0183002 
C     3.6876868    1.4053515    0.6303963 
C     4.4680283    0.8808170   -0.5859688 
H     4.3132386    1.3216727    1.5475009 
H     3.4715306    2.4879327    0.4911754 
C     5.8744629    1.4664527   -0.6058433 
N     3.6926034    1.1868988   -1.8076444 
H     4.6070590   -0.2220009   -0.4809214 
H     4.2825903    1.6708024   -2.5283808 
H     3.3504942    0.2964833   -2.2388340 
H    -2.4147706    1.0502697   -0.8100763 
H    -1.6530785   -0.7700418    0.6697743 
H    -0.8274606    2.7618970   -1.5584029 
H     1.5136971    2.6702659   -0.8410543 
H     3.1250300   -0.9625911    2.1088798 
O     6.9537222    0.6892261   -0.2004305 
O     6.0900335    2.7872973   -0.9833777 
H     7.0774813    2.9953206   -0.9113189 
