27
Energy =
C    -1.5074106    2.4067485   -0.4854181 
C    -1.3994187    1.0739493   -0.2247184 
C    -0.1653186    0.5498057   -0.0711811 
C    -0.3858145    3.1807270   -0.5858548 
C     0.8498574    2.6261920   -0.4264242 
C     0.9367013    1.2928045   -0.1672574 
N     0.1590036   -0.7992170    0.2039971 
C     2.0308372    0.5257370    0.0278408 
C     1.5928823   -0.7370626    0.2535366 
H    -0.4814917   -1.6154075    0.3425201 
C     3.4554545    1.1000146   -0.0030673 
C     4.7680787    0.2406916    0.1718966 
H     3.4479151    1.9346670    0.7270107 
H     3.5515973    1.6101982   -0.9877473 
C     4.6216318   -1.2587917    0.3223138 
N     5.6401654    0.7841511    1.2404012 
H     5.3187484    0.3140943   -0.7966544 
H     6.5661291    1.0701112    0.8435618 
H     5.2494452    1.6046878    1.7546003 
H    -2.4893066    2.8552857   -0.6143821 
H    -2.2792801    0.4448558   -0.1420482 
H    -0.4792006    4.2438163   -0.7946735 
H     1.7360291    3.2481304   -0.5086253 
H     2.1892727   -1.6196184    0.4328651 
O     4.1878391   -2.0205336   -0.7544376 
O     4.8800572   -1.8991571    1.5270564 
H     4.0374810   -1.9377672    2.0746585 
