27
Energy =
C    -1.2069471    2.3731511   -0.5870928 
C    -1.0532088    1.1960742    0.0830118 
C     0.1945152    0.7037721    0.2333241 
C    -0.1165019    3.0271195   -1.0899101 
C     1.1344454    2.5102119   -0.9239391 
C     1.2644375    1.3366811   -0.2524806 
N     0.5680538   -0.4996910    0.8900248 
C     2.3663475    0.6264748    0.0404167 
C     1.9907161   -0.4755572    0.7138650 
H    -0.0329384   -1.2040997    1.3755626 
C     3.7975795    0.9626590   -0.3285909 
C     4.2289819    0.3704058   -1.6847352 
H     4.4773086    0.5708059    0.4601107 
H     3.9356057    2.0659710   -0.3405015 
C     3.3997706    0.9092379   -2.8455205 
N     4.2364818   -1.1023092   -1.5980971 
H     5.2680382    0.7219604   -1.8800248 
H     3.2503056   -1.4584763   -1.6441367 
H     4.7069434   -1.4896596   -2.4503969 
H    -2.2007767    2.7899175   -0.7288200 
H    -1.9084999    0.6623134    0.4829011 
H    -0.2463289    3.9597104   -1.6335918 
H     1.9959850    3.0265942   -1.3376560 
H     2.6681440   -1.2530807    1.0594468 
O     2.2396416    0.2665110   -3.2569358 
O     3.7672380    2.0959902   -3.4658887 
H     4.5242368    1.9126366   -4.1077704 
