27
Energy =
C    -0.4995286    2.6231268   -1.8472099 
C    -0.8790579    1.8771444   -0.7709994 
C     0.0829090    1.3892133    0.0402352 
C     0.8255289    2.8602410   -2.0884327 
C     1.7789871    2.3550460   -1.2541415 
C     1.3776013    1.6181698   -0.1861630 
N    -0.0964258    0.5849158    1.1974750 
C     2.1046542    1.0125534    0.7673451 
C     1.2626746    0.3815470    1.6044051 
H    -0.9817425    0.2352136    1.6306020 
C     3.6124346    0.9854564    0.8878201 
C     4.2257589   -0.2526895    0.2029939 
H     3.8811720    0.9965895    1.9678448 
H     4.0562651    1.9071524    0.4477209 
C     5.6925559   -0.4020508    0.5865358 
N     4.0531636   -0.1315643   -1.2562073 
H     3.7209916   -1.1771901    0.5709651 
H     4.6262345   -0.8642913   -1.7399368 
H     3.0573469   -0.3398248   -1.5041545 
H    -1.2532407    3.0285478   -2.5176284 
H    -1.9253368    1.6761208   -0.5675128 
H     1.1218098    3.4522186   -2.9512191 
H     2.8312762    2.5361815   -1.4540460 
H     1.5632482   -0.2053303    2.4692397 
O     6.6244391    0.5623439    0.2260624 
O     6.1038421   -1.4828578    1.3564661 
H     5.8443027   -1.3209569    2.3179907 
