27
Energy =
C    -1.5914216    1.3827611   -0.0192021 
C    -0.9848660    0.1645862    0.0633988 
C     0.3596485    0.1112514   -0.0392769 
C    -0.8440113    2.5140361   -0.1973625 
C     0.5142825    2.4336699   -0.2964592 
C     1.0962605    1.2093798   -0.2162277 
N     1.1805180   -1.0452005    0.0341536 
C     2.3931970    0.8655047   -0.2758116 
C     2.4838321   -0.4676386   -0.1215862 
H     0.9102242   -2.0477088    0.1601031 
C     3.5770722    1.7956003   -0.4470961 
C     4.1582462    2.2828235    0.8956302 
H     3.2861302    2.6741441   -1.0610617 
H     4.3713383    1.2669278   -1.0220415 
C     4.7150800    1.1338134    1.7344136 
N     3.1447965    3.0920368    1.5993808 
H     5.0363101    2.9274583    0.6622357 
H     2.4560297    2.4494482    2.0641902 
H     3.6082706    3.6110654    2.3816832 
H    -2.6732440    1.4545589    0.0616023 
H    -1.5618430   -0.7421566    0.2108503 
H    -1.3345360    3.4827472   -0.2556954 
H     1.1090431    3.3334416   -0.4239928 
H     3.4154593   -1.0314056   -0.0916055 
O     5.5593825    0.1990296    1.1501810 
O     4.4596599    1.0481115    3.0971471 
H     5.0539615    1.7019897    3.5839772 
