27
Energy =
C    -0.8271321    3.5059432   -0.0147050 
C    -1.1230546    2.1760805   -0.0555109 
C    -0.1040157    1.2962968   -0.1505088 
C     0.4735867    3.9238473   -0.0684363 
C     1.4863754    3.0144309   -0.1608722 
C     1.1688052    1.6945900   -0.2032830 
N    -0.1978978   -0.1198997   -0.2061265 
C     1.9641425    0.6140248   -0.2928119 
C     1.1851761   -0.4827903   -0.2992061 
H    -1.0479894   -0.7288797   -0.1793831 
C     3.4773745    0.5884150   -0.3858696 
C     4.0088775    0.7381699   -1.8330205 
H     3.8511403   -0.3698029    0.0379309 
H     3.9039121    1.3887313    0.2576458 
C     3.7425768    2.1347559   -2.3979833 
N     3.4873972   -0.3313466   -2.7034032 
H     5.1158705    0.6298544   -1.8022938 
H     3.5811805   -1.2629902   -2.2372875 
H     2.4685634   -0.1704339   -2.8989614 
H    -1.6291057    4.2369348    0.0537689 
H    -2.1496437    1.8275112   -0.0177896 
H     0.7023607    4.9868860   -0.0475282 
H     2.5167589    3.3515949   -0.2151006 
H     1.5467810   -1.5057219   -0.3713412 
O     2.5791642    2.3911496   -3.1136969 
O     4.5814488    3.2081135   -2.0925382 
H     5.4032510    2.9183192   -1.5843969 
