27
Energy =
C     0.9920150    2.7431230   -2.7294109 
C     0.7388605    1.4049176   -2.7469083 
C     0.8106122    0.7167846   -1.5868696 
C     1.3300209    3.3633175   -1.5609675 
C     1.4120354    2.6502286   -0.4028703 
C     1.1305285    1.3207785   -0.4361420 
N     0.6675007   -0.6934858   -1.4462748 
C     1.1875019    0.4269289    0.5606393 
C     0.8803273   -0.9171847   -0.0151093 
H     0.4337842   -1.3914876   -2.1897547 
C     1.9552066    0.5708562    1.8438452 
C     3.4609724    0.3197636    1.6057982 
H     1.5765225   -0.1689018    2.5833368 
H     1.7896915    1.5781175    2.2806921 
C     3.8010638   -1.0705071    1.0184530 
N     4.1543802    0.5613852    2.8848614 
H     3.8319167    1.0465473    0.8466630 
H     5.1761520    0.3492894    2.7775574 
H     4.1012738    1.5796006    3.1220009 
H     0.9394790    3.3158063   -3.6521145 
H     0.4986326    0.8939008   -3.6732999 
H     1.5430000    4.4297632   -1.5567237 
H     1.6922736    3.1477643    0.5205968 
H     1.0188554   -1.7415821    0.3315219 
O     5.1083914   -1.5379851    1.1313696 
O     2.8975762   -1.8399911    0.2506729 
H     1.9170283   -1.5375525    0.1826279 
