27
Energy =
C    -0.5688934    1.8379776    1.9812450 
C    -0.8055937    0.6634320    1.3301641 
C     0.0391400    0.2981073    0.3430414 
C     0.5026848    2.6143647    1.6348217 
C     1.3425224    2.2222302    0.6340342 
C     1.0840175    1.0515447   -0.0025435 
N    -0.0207175   -0.8812168   -0.4470107 
C     1.7495738    0.4509554   -1.0006702 
C     1.1272691   -0.7065254   -1.2869065 
H    -0.7141295   -1.6633129   -0.4242961 
C     3.0104409    0.9486471   -1.6783843 
C     4.3246417    0.7207027   -0.8692942 
H     2.8915542    2.0354664   -1.8813791 
H     3.0796433    0.4807950   -2.6870783 
C     5.3625773   -0.0396288   -1.6844241 
N     4.0631040    0.0940144    0.4424481 
H     4.7887269    1.7186946   -0.6899628 
H     3.7464295   -0.8948840    0.2983547 
H     4.9653201    0.0187264    0.9716407 
H    -1.2321924    2.1560138    2.7816554 
H    -1.6476382    0.0333970    1.5957203 
H     0.6890845    3.5465464    2.1625389 
H     2.2000084    2.8319776    0.3655786 
H     1.4480055   -1.4205029   -2.0405664 
O     6.1216823    0.6361481   -2.6281096 
O     5.5051761   -1.4154737   -1.5624970 
H     4.7826075   -1.8681543   -2.1016894 
