27
Energy =
C    -1.2897472    2.9346963    0.7647993 
C    -1.1481992    1.6314837    1.1378185 
C    -0.0218760    0.9812912    0.7773969 
C    -0.3070941    3.5557557    0.0452315 
C     0.8223105    2.8759589   -0.3087104 
C     0.9422407    1.5779701    0.0729894 
N     0.3215284   -0.3648793    1.0723408 
C     1.9386527    0.7000986   -0.1382014 
C     1.6080437   -0.4633440    0.4494890 
H    -0.2218819   -1.0869439    1.5987793 
C     3.2439924    0.9441065   -0.8654397 
C     4.3370168    1.4857618    0.0754714 
H     3.0973027    1.6389425   -1.7217740 
H     3.5952250   -0.0151094   -1.3075474 
C     4.0694984    2.9278315    0.4745545 
N     5.6402567    1.3284634   -0.5926357 
H     4.3338474    0.8929000    1.0210903 
H     5.6894941    1.9903104   -1.4066902 
H     6.4010138    1.6250019    0.0637197 
H    -2.1845770    3.4839499    1.0473217 
H    -1.9154766    1.1256130    1.7140562 
H    -0.4220600    4.6000941   -0.2380747 
H     1.6072996    3.3765218   -0.8686402 
H     2.2293311   -1.3563318    0.4622458 
O     3.9641195    3.9172826   -0.4937854 
O     3.8932574    3.2687486    1.8056415 
H     4.7969999    3.3210752    2.2516312 
