27
Energy =
C    -0.7424715    2.1139491   -1.8468622 
C    -1.0002399    1.2866204   -0.7943135 
C     0.0199311    0.9586886    0.0262050 
C     0.5226731    2.5892611   -2.0559205 
C     1.5372028    2.2422600   -1.2128553 
C     1.2563934    1.4202111   -0.1687928 
N    -0.0318359    0.1079508    1.1627513 
C     2.0641208    0.9313705    0.7867281 
C     1.3348644    0.1404982    1.5931459 
H    -0.8473102   -0.4041503    1.5705731 
C     3.5500992    1.1716187    0.9381351 
C     4.3896559    0.0770268    0.2470014 
H     3.7943224    1.2095804    2.0234510 
H     3.8300230    2.1669487    0.5248880 
C     5.8553996    0.1786156    0.6562649 
N     4.2285542    0.1940694   -1.2130401 
H     4.0425725   -0.9270450    0.5864366 
H     4.9148740   -0.4389073   -1.6905183 
H     3.2825716   -0.1644544   -1.4832535 
H    -1.5454024    2.3944477   -2.5239998 
H    -1.9969272    0.8974308   -0.6164435 
H     0.7224536    3.2451669   -2.9000146 
H     2.5433502    2.6127576   -1.3872283 
H     1.7214821   -0.4040607    2.4514460 
O     6.5035841    1.4074141    0.6866120 
O     6.5611278   -0.9651990    1.0084467 
H     6.3321081   -1.2150665    1.9587762 
