27
Energy =
C    -0.3882207    4.1800895   -1.0007560 
C    -0.9237724    3.0364871   -0.4886093 
C    -0.0945271    2.0075101   -0.2157378 
C     0.9564396    4.2683552   -1.2301305 
C     1.7744525    3.2136365   -0.9475783 
C     1.2206214    2.0840534   -0.4326490 
N    -0.4520083    0.7376652    0.3067924 
C     1.7951273    0.9203989   -0.0781512 
C     0.8280348    0.0945892    0.3628612 
H    -1.3921719    0.3616605    0.5685066 
C     3.2660794    0.5526376   -0.1737195 
C     4.0152197    0.5829169    1.1837094 
H     3.7919028    1.2142961   -0.8922039 
H     3.3430193   -0.4727794   -0.6009331 
C     3.4882191   -0.4571513    2.1619224 
N     4.0323960    1.9342472    1.7853659 
H     5.0642555    0.2669532    0.9734135 
H     5.0208841    2.2685804    1.8737357 
H     3.5265203    2.6402933    1.2067040 
H    -1.0343396    5.0245751   -1.2283172 
H    -1.9891983    2.9487919   -0.3028749 
H     1.3748233    5.1846665   -1.6402526 
H     2.8405874    3.2898173   -1.1332058 
H     0.9890978   -0.9192174    0.7246860 
O     4.0859647   -1.7093876    2.2283560 
O     2.3877639   -0.1978606    2.9678644 
H     2.7242755    0.1928637    3.8345863 
