27
Energy =
C    -1.5409487    1.0833859   -0.0354938 
C    -1.0164739   -0.1310594   -0.3651942 
C     0.3264270   -0.2543681   -0.4185241 
C    -0.7160757    2.1421985    0.2265778 
C     0.6381175    1.9927879    0.1642516 
C     1.1378768    0.7726123   -0.1594805 
N     1.0688425   -1.4168664   -0.7588899 
C     2.4120316    0.3731659   -0.2964111 
C     2.4110707   -0.9193061   -0.6682019 
H     0.7285588   -2.3756827   -0.9996456 
C     3.6562889    1.2247373   -0.1294978 
C     4.0817188    2.0139638   -1.4095398 
H     4.4828685    0.5664966    0.2182563 
H     3.4936741    1.9413032    0.7046433 
C     3.1084107    1.9145506   -2.5778169 
N     5.4456014    1.6296237   -1.8145621 
H     4.0879335    3.1015632   -1.1652597 
H     6.1088882    1.7498666   -1.0136249 
H     5.4506429    0.6191710   -2.0960880 
H    -2.6192765    1.2128506    0.0104491 
H    -1.6572294   -0.9780159   -0.5857879 
H    -1.1414840    3.1111271    0.4764289 
H     1.2905971    2.8394953    0.3551112 
H     3.3000104   -1.4980268   -0.9062197 
O     2.2247387    2.9569673   -2.8345864 
O     3.0369841    0.7618914   -3.3519824 
H     2.3238584    0.8963137   -4.0559587 
