27
Energy =
C     0.1205580    4.2706252   -1.2598876 
C    -0.2487346    3.0498180   -1.7406032 
C     0.5220533    1.9836549   -1.4399571 
C     1.2439904    4.3970247   -0.4908858 
C     2.0086356    3.3036595   -0.2032641 
C     1.6230304    2.0972873   -0.6946113 
N     0.3043424    0.6338521   -1.8222174 
C     2.1826026    0.8838548   -0.5486131 
C     1.4203161   -0.0126958   -1.1986206 
H    -0.4633295    0.2257609   -2.4027623 
C     3.4307587    0.5333302    0.2330810 
C     3.1217345    0.2785090    1.7277842 
H     4.1931352    1.3371842    0.1273317 
H     3.8838612   -0.3776905   -0.2170253 
C     2.7693663    1.5763018    2.4508825 
N     4.2735720   -0.3856474    2.3616751 
H     2.2381765   -0.3930991    1.8216260 
H     4.4926362   -1.2835922    1.8704815 
H     5.1206328    0.2306979    2.2986946 
H    -0.4868545    5.1447975   -1.4803064 
H    -1.1419863    2.9304156   -2.3441561 
H     1.5211326    5.3722372   -0.0958195 
H     2.8871270    3.4017179    0.4294821 
H     1.6149880   -1.0816310   -1.2453308 
O     3.7710971    2.5038741    2.7149414 
O     1.4487096    1.9391068    2.7146038 
H     0.7864682    1.2367841    2.4208671 
