27
Energy =
C    -1.2191544    2.7435349   -0.7120676 
C    -1.1397977    1.5091343   -0.1391563 
C     0.0831107    0.9762904    0.0652336 
C    -0.0808885    3.4126093   -1.0677342 
C     1.1438482    2.8522099   -0.8523369 
C     1.1991731    1.6222580   -0.2778873 
N     0.3827700   -0.2909326    0.6326006 
C     2.2610377    0.8587327    0.0300664 
C     1.8145203   -0.2895355    0.5686761 
H    -0.2674078   -1.0250165    0.9962832 
C     3.7199029    1.1778140   -0.2119035 
C     4.2691375    0.4806556   -1.4792879 
H     4.3017364    0.8396821    0.6762681 
H     3.8854248    2.2749018   -0.2784379 
C     5.7809622    0.5967858   -1.5383071 
N     3.6483511    1.0367311   -2.6946353 
H     4.0604826   -0.6136595   -1.4296238 
H     2.6112657    0.9041877   -2.6674001 
H     3.8470268    2.0648841   -2.7512977 
H    -2.1916172    3.1967503   -0.8878794 
H    -2.0329098    0.9635547    0.1460867 
H    -0.1525448    4.3965177   -1.5253992 
H     2.0437700    3.3862948   -1.1396571 
H     2.4456334   -1.1106605    0.9025982 
O     6.5756817   -0.5155236   -1.2891972 
O     6.3879430    1.8262561   -1.7640764 
H     7.3904360    1.6903409   -1.7644782 
