27
Energy =
C    -1.5664048    0.7087447   -0.4092956 
C    -0.6027563    0.1537346   -1.1972337 
C     0.6709141    0.5705591   -1.0399802 
C    -1.2371097    1.6628137    0.5128859 
C     0.0578406    2.0674124    0.6537924 
C     1.0031726    1.4995235   -0.1410732 
N     1.8125793    0.1211701   -1.7534615 
C     2.3292583    1.7146533   -0.1991210 
C     2.8441330    0.9103461   -1.1466278 
H     1.8838352   -0.5846227   -2.5215751 
C     3.1388028    2.6763987    0.6496861 
C     3.8423753    2.0066422    1.8583206 
H     2.4904563    3.5008152    1.0130374 
H     3.9043196    3.1624380    0.0023611 
C     5.0143578    1.1293434    1.4382195 
N     2.8804981    1.2843898    2.7110522 
H     4.3050783    2.8165680    2.4673512 
H     2.0529177    1.8891182    2.9196321 
H     2.5287847    0.4328005    2.2067687 
H    -2.6004297    0.3906278   -0.5149329 
H    -0.8461473   -0.6050023   -1.9331143 
H    -2.0121009    2.1008000    1.1373732 
H     0.3112424    2.8253334    1.3869947 
H     3.9003271    0.8410322   -1.4013783 
O     4.8109584   -0.1398653    0.9136327 
O     6.3101531    1.6200155    1.5202650 
H     6.6103418    1.5783902    2.4832581 
