27
Energy =
C    -0.4169219    3.4602166   -0.9635348 
C    -0.7437817    2.1533512   -1.1682581 
C     0.0544741    1.2032595   -0.6382200 
C     0.6966136    3.7863404   -0.2411386 
C     1.4898597    2.8083608    0.2827380 
C     1.1431006    1.5107355    0.0711783 
N    -0.1029730   -0.2032924   -0.7479098 
C     1.7475055    0.3757361    0.4663800 
C     1.0398614   -0.6664211   -0.0117179 
H    -0.8574168   -0.7482055   -1.2266018 
C     3.0229561    0.2533716    1.2812432 
C     4.2114464   -0.2383929    0.4350279 
H     2.8527543   -0.4321979    2.1387189 
H     3.2890665    1.2306129    1.7353421 
C     4.0513996   -1.7138557    0.0788473 
N     5.4573301    0.0747439    1.1656983 
H     4.2065160    0.3132026   -0.5368587 
H     5.9053209   -0.7486751    1.6159422 
H     6.1659431    0.4797660    0.5007655 
H    -1.0418272    4.2460414   -1.3804713 
H    -1.6202697    1.8775337   -1.7447999 
H     0.9539757    4.8315478   -0.0867523 
H     2.3765899    3.0796819    0.8459981 
H     1.3326729   -1.7159031    0.0872411 
O     3.5539878   -2.0587962   -1.1616821 
O     4.1733657   -2.7184231    1.0211516 
H     4.7457577   -2.3374266    1.7560120 
