27
Energy =
C    -1.5572055    1.9797705    0.4650680 
C    -1.2531879    0.6519279    0.4159366 
C     0.0297606    0.2973135    0.1931096 
C    -0.5781457    2.9175287    0.2875421 
C     0.7109092    2.5333778    0.0612560 
C     0.9921782    1.2046321    0.0215569 
N     0.5490736   -1.0189107    0.0901177 
C     2.1642641    0.5810936   -0.1874125 
C     1.9344340   -0.7493990   -0.1664138 
H     0.0525031   -1.9359657    0.1708174 
C     3.4868297    1.2776883   -0.4772389 
C     4.7508336    0.3969956   -0.3105630 
H     3.5908169    2.1509357    0.2068928 
H     3.4487547    1.6643732   -1.5187781 
C     4.8581249   -0.1694136    1.0960298 
N     5.9658221    1.1671711   -0.6559373 
H     4.6704158   -0.4828990   -0.9897729 
H     6.4790298    0.6945431   -1.4369144 
H     5.7563980    2.1432377   -0.9724019 
H    -2.5823617    2.2937905    0.6447239 
H    -2.0184487   -0.1049384    0.5508431 
H    -0.8283649    3.9749900    0.3268061 
H     1.4850059    3.2811152   -0.0825308 
H     2.6815657   -1.5266392   -0.3140191 
O     4.9833225    0.6696815    2.1993241 
O     4.7611145   -1.5431732    1.2934767 
H     4.8620401   -1.7334189    2.2825611 
