27
Energy =
C    -1.4466577    1.7998511   -1.7417380 
C    -1.2710286    0.5716065   -1.1760305 
C    -0.0900494    0.3055175   -0.5792360 
C    -0.4425385    2.7276925   -1.6999196 
C     0.7420502    2.4338207   -1.0913475 
C     0.8931660    1.2056393   -0.5332955 
N     0.2998439   -0.9056360    0.0531837 
C     1.9477628    0.6738832    0.1046751 
C     1.6344088   -0.5829846    0.4657620 
H    -0.2411898   -1.7917973    0.1792486 
C     3.2866800    1.3365889    0.3568375 
C     4.3301473    1.2286292   -0.8053427 
H     3.7304545    0.8917745    1.2753913 
H     3.1023456    2.4009209    0.6277885 
C     4.8500614    2.5944084   -1.2200279 
N     3.8327071    0.4707573   -1.9701075 
H     5.2346348    0.7047586   -0.4168081 
H     3.5354976   -0.4905409   -1.6825981 
H     3.0097589    0.9609321   -2.3968304 
H    -2.3874314    2.0414950   -2.2301253 
H    -2.0552479   -0.1772474   -1.2034204 
H    -0.5863210    3.7043760   -2.1562324 
H     1.5407158    3.1695907   -1.0644445 
H     2.2988494   -1.2674588    0.9880986 
O     4.0489947    3.4666037   -1.9523960 
O     6.1118674    3.0086165   -0.8086886 
H     6.2897583    3.9374405   -1.1685011 
