27
Energy =
C    -1.2396708    2.7422620   -1.3407884 
C    -1.3306276    1.5162679   -0.7506595 
C    -0.1967484    0.9345887   -0.3063589 
C    -0.0234653    3.3532342   -1.4770299 
C     1.1084982    2.7437705   -1.0213239 
C     0.9921175    1.5259965   -0.4316982 
N    -0.0692768   -0.3371558    0.3146842 
C     1.9391368    0.7248738    0.0804077 
C     1.3491103   -0.3991000    0.5225348 
H    -0.8107151   -1.0340729    0.5560171 
C     3.4291828    0.9968447    0.1206263 
C     4.2081081    0.5665719   -1.1593813 
H     3.8600089    0.4697238    1.0004063 
H     3.5812015    2.0783186    0.3381665 
C     5.0858918    1.7075575   -1.6816152 
N     3.3015335    0.0346408   -2.1970059 
H     4.9035890   -0.2547796   -0.8725246 
H     2.7356983    0.8185527   -2.6046827 
H     3.8700963   -0.3419918   -2.9926498 
H    -2.1368824    3.2331881   -1.7094133 
H    -2.2859934    1.0144130   -0.6415946 
H     0.0434663    4.3274049   -1.9560644 
H     2.0768944    3.2230050   -1.1434263 
H     1.8731241   -1.2474544    0.9560441 
O     4.5529386    2.6380456   -2.5659992 
O     6.3943225    1.8844044   -1.2324020 
H     6.6609766    1.1998201   -0.5410828 
