27
Energy =
C    -0.6437362    4.1846747    0.6667769 
C    -1.1190416    3.1842774   -0.1285941 
C    -0.3020484    2.1472432   -0.4088329 
C     0.6316144    4.1271885    1.1580035 
C     1.4386238    3.0693054    0.8578284 
C     0.9420840    2.0835183    0.0671245 
N    -0.5925685    1.0196850   -1.2220068 
C     1.5259663    0.9590750   -0.3745985 
C     0.6478205    0.3041409   -1.1541420 
H    -1.4743072    0.7730823   -1.7262488 
C     2.9476240    0.5142821   -0.1132426 
C     3.9443890    1.1913241   -1.0748633 
H     3.0227823   -0.5921265   -0.2080043 
H     3.2150159    0.7514799    0.9391190 
C     3.6519439    0.8360585   -2.5360952 
N     5.3075044    0.7981566   -0.6831064 
H     3.8406505    2.2986024   -0.9840987 
H     5.9932589    1.2544459   -1.3322997 
H     5.5163944    1.1913026    0.2653592 
H    -1.2797668    5.0326145    0.9073781 
H    -2.1251750    3.2162541   -0.5321579 
H     1.0059960    4.9300774    1.7879759 
H     2.4527313    3.0283639    1.2431684 
H     0.8557204   -0.6192278   -1.6911723 
O     3.1185831    1.8015224   -3.3813397 
O     3.8839274   -0.4445908   -3.0396403 
H     4.3409577   -1.0226303   -2.3493117 
