27
Energy =
C    -1.4631335    2.1930759    0.1485065 
C    -1.1505325    0.8843160   -0.0672971 
C     0.1442998    0.5594809   -0.2648518 
C    -0.4795381    3.1423283    0.1646410 
C     0.8228049    2.7887280   -0.0413250 
C     1.1119402    1.4791948   -0.2567347 
N     0.6751222   -0.7371026   -0.4953859 
C     2.2934122    0.8753911   -0.4800251 
C     2.0722907   -0.4441982   -0.6167797 
H     0.1776997   -1.6545174   -0.5655293 
C     3.6634125    1.5185714   -0.5593745 
C     4.3108323    1.6928268    0.8307464 
H     3.6100454    2.4949361   -1.0880588 
H     4.3163186    0.8751694   -1.1899624 
C     3.6469385    2.8321499    1.5984506 
N     5.7560054    1.9236910    0.6439009 
H     4.1479902    0.7729029    1.4449832 
H     6.2030485    2.0513864    1.5849298 
H     6.1948585    1.0572113    0.2490573 
H    -2.4977678    2.4804773    0.3200366 
H    -1.9176541    0.1171634   -0.0744460 
H    -0.7356669    4.1820261    0.3577099 
H     1.6049959    3.5405052   -0.0010698 
H     2.8423545   -1.1918190   -0.7934020 
O     2.6243590    2.5477976    2.4895340 
O     3.9253365    4.1659207    1.3140162 
H     4.7448777    4.2256770    0.7266317 
