27
Energy =
C    -1.3793371    1.8221700   -0.2155238 
C    -0.9411239    0.6831666    0.3913472 
C     0.3828396    0.4213113    0.3806718 
C    -0.4894347    2.6696250   -0.8146267 
C     0.8440585    2.3842252   -0.8104160 
C     1.2588667    1.2423488   -0.2026389 
N     1.0389471   -0.6994710    0.9563564 
C     2.4969314    0.7396421   -0.0590611 
C     2.4041596   -0.4152585    0.6250806 
H     0.6319785   -1.5048275    1.4847426 
C     3.7951290    1.3347448   -0.5712832 
C     4.2023063    0.8125104   -1.9724009 
H     4.6090754    1.1077551    0.1520729 
H     3.7188799    2.4433986   -0.5945975 
C     3.2154344    1.2116976   -3.0622187 
N     4.4468710   -0.6413791   -1.9461315 
H     5.1545636    1.3131544   -2.2622963 
H     5.0491317   -0.9011868   -1.1312578 
H     3.5382181   -1.1601935   -1.8703671 
H    -2.4410145    2.0552703   -0.2274171 
H    -1.6347170   -0.0003267    0.8690357 
H    -0.8470851    3.5727647   -1.3030978 
H     1.5442571    3.0571526   -1.2926405 
H     3.2446979   -1.0526139    0.8870909 
O     2.0369371    0.5006884   -3.2534184 
O     3.4413933    2.3548144   -3.8189225 
H     3.1737762    3.1645408   -3.2816866 
