27
Energy =
C    -1.2673853    3.2385573    0.1740615 
C    -1.3401175    1.8804845    0.0770850 
C    -0.1920767    1.1881389   -0.0769673 
C    -0.0551700    3.8696832    0.1205522 
C     1.0916837    3.1474130   -0.0321810 
C     0.9937756    1.7967567   -0.1336419 
N    -0.0452556   -0.2217402   -0.1746476 
C     1.9560993    0.8719348   -0.2740846 
C     1.3790440   -0.3423501   -0.2920329 
H    -0.7773526   -0.9684587   -0.1622328 
C     3.4475327    1.1135117   -0.3353581 
C     4.2290047    1.1612566    1.0278805 
H     3.6300948    2.0606058   -0.8877979 
H     3.8797185    0.3305233   -1.0011304 
C     5.4020190    0.1948942    1.0220683 
N     3.4113178    0.9552231    2.2486192 
H     4.7104677    2.1660676    1.0876551 
H     3.5148771    1.7763850    2.8896036 
H     2.3903617    0.8154135    2.1012837 
H    -2.1765106    3.8213303    0.2982540 
H    -2.2926617    1.3639172    0.1246968 
H    -0.0051316    4.9527892    0.2030300 
H     2.0537688    3.6497717   -0.0656145 
H     1.9182469   -1.2866324   -0.3521512 
O     5.2170952   -1.1483548    0.7061444 
O     6.6837111    0.6519309    1.3026675 
H     7.3175515   -0.1358925    1.2717984 
