27
Energy =
C    -1.3104691    2.1547099   -0.3562964 
C    -0.9594482    1.0420641    0.3485211 
C     0.3438019    0.6931747    0.3860821 
C    -0.3570678    2.8863890   -1.0082490 
C     0.9535442    2.5131039   -0.9565004 
C     1.2817457    1.4046178   -0.2429414 
N     0.9114185   -0.4304759    1.0446411 
C     2.4788661    0.8286565   -0.0432864 
C     2.2957362   -0.2746237    0.7034252 
H     0.4458393   -1.1612937    1.6294010 
C     3.8171400    1.2838039   -0.5926220 
C     4.2030366    0.5358109   -1.8811751 
H     4.6006028    1.1111879    0.1765787 
H     3.8046313    2.3783325   -0.7844521 
C     3.1676230    0.7527497   -2.9825119 
N     4.4260409   -0.8865725   -1.5570299 
H     5.1468857    0.9808315   -2.2721149 
H     4.4184203   -1.4582556   -2.4364061 
H     5.3770945   -1.0014444   -1.1347961 
H    -2.3536051    2.4553657   -0.4092119 
H    -1.7049812    0.4446354    0.8618453 
H    -0.6453364    3.7641120   -1.5813898 
H     1.7032101    3.0861236   -1.4942291 
H     3.0811687   -0.9757229    0.9750253 
O     2.1051431   -0.1242843   -3.1569859 
O     3.2505206    1.8769751   -3.7949173 
H     3.9526353    1.7203250   -4.5024889 
