27
Energy =
C    -1.0802706    2.8680987   -0.5427828 
C    -1.0119132    1.5752570   -0.9696336 
C     0.1293329    0.8890852   -0.7510720 
C    -0.0128728    3.4417100    0.0908130 
C     1.1293662    2.7263941    0.3007506 
C     1.1759849    1.4404197   -0.1354505 
N     0.4011300   -0.4570333   -1.1060088 
C     2.1703747    0.5415797   -0.0474859 
C     1.7396972   -0.6058276   -0.6120456 
H    -0.2107988   -1.1534363   -1.5897225 
C     3.5171665    0.7983660    0.6145901 
C     4.5802829   -0.3169663    0.4574526 
H     3.3451263    0.9849465    1.6963696 
H     3.9363406    1.7390777    0.1900231 
C     4.9726138   -0.5246435   -1.0064371 
N     4.1182338   -1.5564919    1.1095363 
H     5.5141061    0.0297132    0.9599171 
H     4.9493658   -2.1757653    1.2394482 
H     3.7715441   -1.3412934    2.0810630 
H    -1.9870831    3.4446844   -0.7071060 
H    -1.8496059    1.1044378   -1.4728093 
H    -0.0747713    4.4735233    0.4283031 
H     1.9753661    3.1841036    0.8050228 
H     2.3099220   -1.5258195   -0.6897561 
O     5.2242823    0.5776887   -1.8058686 
O     5.1412589   -1.7857317   -1.5607504 
H     5.0096223   -2.4532655   -0.8151714 
