27
Energy =
C    -0.9629182    0.8565724   -1.9698486 
C    -1.0783132    0.7208467   -0.6183433 
C     0.0100784    0.9574874    0.1435978 
C     0.2315675    1.2220955   -2.5261619 
C     1.3180303    1.4545107   -1.7347513 
C     1.1796476    1.3149000   -0.3905044 
N     0.1037512    0.8634175    1.5577617 
C     2.0809456    1.4755980    0.5928670 
C     1.4788414    1.2110590    1.7654875 
H    -0.6316340    0.6069010    2.2558765 
C     3.5414118    1.8438232    0.4471966 
C     4.4716414    0.6064000    0.5224983 
H     3.8029685    2.5494720    1.2686047 
H     3.7212371    2.4059279   -0.4950744 
C     5.9489719    0.9924919    0.6082937 
N     4.2308891   -0.2945119   -0.6187018 
H     4.2662336    0.0600524    1.4720208 
H     3.2568456   -0.6767773   -0.5796017 
H     4.3352679    0.2298481   -1.5203410 
H    -1.8242901    0.6727793   -2.6074215 
H    -2.0177937    0.4296139   -0.1608459 
H     0.3155777    1.3281361   -3.6053486 
H     2.2640263    1.7430427   -2.1810648 
H     1.9644378    1.2488951    2.7382971 
O     6.3479026    2.3073530    0.3914395 
O     6.9219989    0.0389812    0.9032442 
H     6.5291322   -0.8916060    0.9210539 
