27
Energy =
C    -0.4445361    2.9504675    1.1813645 
C    -0.8478365    1.8873934    0.4294546 
C     0.0943287    1.1585550   -0.2051152 
C     0.8839111    3.2578607    1.2828834 
C     1.8171527    2.5064204    0.6316246 
C     1.3928013    1.4527028   -0.1131325 
N    -0.1126612    0.0158881   -1.0237553 
C     2.0966280    0.5660814   -0.8369213 
C     1.2354435   -0.3093129   -1.3855381 
H    -1.0081743   -0.4522805   -1.2924297 
C     3.6010808    0.5015355   -0.9962105 
C     4.2514819   -0.4190116    0.0610892 
H     4.0384819    1.5227214   -0.9344275 
H     3.8329888    0.1206137   -2.0148438 
C     4.1149609    0.1504572    1.4651182 
N     5.6640587   -0.6539005   -0.2887288 
H     3.7187469   -1.3993024    0.0806835 
H     5.7195558   -1.1692243   -1.1986841 
H     6.1570742    0.2630469   -0.4181936 
H    -1.1810295    3.5515191    1.7083347 
H    -1.8969077    1.6260300    0.3439165 
H     1.2006036    4.1000773    1.8932155 
H     2.8716896    2.7477136    0.7271551 
H     1.5168564   -1.1557110   -2.0072211 
O     3.1655892   -0.3643657    2.3369245 
O     4.8927411    1.2273365    1.8720894 
H     5.7950186    0.8705367    2.1502031 
