27
Energy =
C    -1.6226903    2.3087757   -1.4262262 
C    -1.2310465    1.0026106   -1.4407378 
C    -0.0647772    0.6779319   -0.8442797 
C    -0.8418926    3.2563471   -0.8231650 
C     0.3338555    2.9018657   -0.2273900 
C     0.6996754    1.5950668   -0.2495613 
N     0.5274521   -0.6109570   -0.7588431 
C     1.7925455    0.9991668    0.2523683 
C     1.7313417   -0.3120834   -0.0381705 
H     0.1802579   -1.5282672   -1.1241799 
C     2.9291789    1.6672450    0.9918200 
C     4.0146612    2.2050096    0.0392481 
H     3.3853886    0.9359850    1.6967452 
H     2.5406973    2.4987602    1.6205210 
C     5.2032307    2.7770450    0.8236838 
N     3.4088410    3.2046635   -0.8640455 
H     4.4205937    1.3493740   -0.5499040 
H     4.1475092    3.8498444   -1.2368598 
H     3.0185128    2.7130794   -1.7030752 
H    -2.5578632    2.5978885   -1.9007343 
H    -1.8359650    0.2394289   -1.9196528 
H    -1.1576108    4.2976990   -0.8234894 
H     0.9696784    3.6525239    0.2377285 
H     2.4863316   -1.0473038    0.2325266 
O     5.0443193    3.1982406    2.1396468 
O     6.4585525    2.9062110    0.2294943 
H     6.4485944    2.6152538   -0.7360645 
