27
Energy =
C    -1.1874466    3.3634275   -0.0860989 
C    -1.3329759    2.0291296    0.1514489 
C    -0.2374259    1.2437662    0.0836940 
C     0.0428503    3.8790479   -0.3860630 
C     1.1346329    3.0630098   -0.4497663 
C     0.9677613    1.7381990   -0.2057183 
N    -0.1760090   -0.1600524    0.2880445 
C     1.8652248    0.7374916   -0.2107050 
C     1.2202976   -0.4068732    0.0810426 
H    -0.9464092   -0.8305529    0.5131228 
C     3.3544592    0.8376197   -0.4805815 
C     4.1676651    1.2853498    0.7527671 
H     3.5306543    1.5460857   -1.3181538 
H     3.7309112   -0.1495528   -0.8281528 
C     3.8798478    0.4282003    1.9871324 
N     3.9496093    2.7298414    0.9684227 
H     5.2477295    1.1064933    0.5385905 
H     4.1488639    2.9823358    1.9681961 
H     4.6300927    3.2727581    0.3873064 
H    -2.0527349    4.0193702   -0.0337793 
H    -2.3009660    1.6029051    0.3916437 
H     0.1522683    4.9449440   -0.5701881 
H     2.1107771    3.4721981   -0.6839763 
H     1.6843682   -1.3867423    0.1581044 
O     3.0880619    0.8985608    3.0267418 
O     4.4218099   -0.8469060    2.0835560 
H     3.8860323   -1.4720686    1.5034352 
