27
Energy =
C    -1.4641767    2.6024089   -0.4671056 
C    -1.3256046    1.3162124   -0.0486455 
C    -0.1089267    0.8131120    0.2373299 
C    -0.3949633    3.4316777   -0.5881175 
C     0.9915868    2.9962313   -0.1435481 
C     1.0022415    1.5319015    0.1468233 
N     0.2060768   -0.5653969    0.3904395 
C     2.0678521    0.7182965    0.1025770 
C     1.6350148   -0.5408713    0.2769383 
H    -0.4357336   -1.3797195    0.5316421 
C     3.5296778    1.1166052   -0.1097968 
C     3.8842831    2.3526240   -1.0347660 
H     4.0642201    0.2328426   -0.5225370 
H     3.9645378    1.2637987    0.9050331 
C     4.6845880    3.3885750   -0.2590525 
N     2.7149255    2.9465054   -1.7297208 
H     4.5941909    1.9992682   -1.8169791 
H     1.8798158    2.9599486   -0.9531344 
H     2.9113100    3.9415711   -2.0004767 
H    -2.4513401    2.9670681   -0.7417731 
H    -2.1912937    0.6624663   -0.0148784 
H    -0.5338645    4.4492007   -0.9424296 
H     1.2949444    3.5681331    0.7591749 
H     2.2680149   -1.4254378    0.2856907 
O     4.0614059    4.4774387    0.3386315 
O     6.0518212    3.2195823   -0.0948837 
H     6.4082564    3.9913132    0.4552762 
