27
Energy =
C    -1.5361208    1.8574962    0.1906069 
C    -1.0841124    0.6240301    0.5542793 
C     0.2240789    0.3438627    0.3771011 
C    -0.6747186    2.7788753   -0.3372195 
C     0.6438114    2.4706341   -0.5080922 
C     1.0721510    1.2355395   -0.1395817 
N     0.8924712   -0.8669221    0.7005469 
C     2.3010173    0.6931911   -0.1936174 
C     2.2340936   -0.5535493    0.3061723 
H     0.5058538   -1.7480821    1.1102540 
C     3.5753375    1.3492027   -0.6827334 
C     4.2844450    2.1385047    0.4438075 
H     3.3570157    2.0129338   -1.5474031 
H     4.2566566    0.5564315   -1.0649124 
C     3.5135415    3.3954264    0.8359510 
N     5.6717323    2.4430847    0.0462601 
H     4.3077524    1.5198047    1.3735289 
H     6.2314113    1.5581319    0.0279931 
H     5.7017171    2.8419939   -0.9216455 
H    -2.5840644    2.1119465    0.3294761 
H    -1.7523627   -0.1158179    0.9816714 
H    -1.0404229    3.7664274   -0.6114157 
H     1.3308739    3.2094405   -0.9115054 
H     3.0780746   -1.2315921    0.4093003 
O     2.8498581    3.4284878    2.0550912 
O     3.3510733    4.4711091   -0.0399325 
H     3.9547556    4.3873898   -0.8425016 
