27
Energy =
C    -1.4619201    1.9699806   -1.3884358 
C    -0.9831375    0.6981968   -1.4930659 
C     0.1900056    0.4049987   -0.8972241 
C    -0.7607424    2.9191179   -0.6964613 
C     0.4374416    2.6148859   -0.1093917 
C     0.8835416    1.3232038   -0.2269736 
N     0.8893074   -0.8319741   -0.9329492 
C     2.0438427    0.7910608    0.1788098 
C     2.0884746   -0.4904726   -0.2228196 
H     0.6084370   -1.7420240   -1.3657545 
C     3.1725498    1.5412560    0.8458028 
C     3.8183847    2.5894555   -0.1028515 
H     3.9522923    0.8251653    1.1900025 
H     2.7850733    2.0475759    1.7576180 
C     4.8879416    3.4152131    0.6103253 
N     2.7929892    3.4709254   -0.6999407 
H     4.3550345    2.0426192   -0.9110123 
H     2.5352646    3.1140220   -1.6539869 
H     1.8288203    3.5080830    0.0137965 
H    -2.4088030    2.2298481   -1.8560484 
H    -1.5233782   -0.0620291   -2.0473933 
H    -1.1640742    3.9256226   -0.6077301 
H     0.9838720    3.5200008    0.5959769 
H     2.9335217   -1.1610462   -0.0815956 
O     5.3210950    3.0521397    1.8818429 
O     5.5033392    4.5007045   -0.0127059 
H     5.0764940    4.6973288   -0.9059194 
