27
Energy =
C    -1.1062988    1.7514964    1.1343543 
C    -1.0366123    0.5711962    0.4558312 
C     0.1191368    0.2587984   -0.1672834 
C    -0.0247071    2.5870984    1.1756105 
C     1.1322327    2.2489631    0.5374517 
C     1.1790679    1.0687711   -0.1329449 
N     0.4007103   -0.9171669   -0.9132301 
C     2.1836803    0.5076188   -0.8262605 
C     1.7605307   -0.6786740   -1.2979379 
H    -0.2211892   -1.7303920   -1.1260859 
C     3.5802396    1.0579875   -1.0220395 
C     4.5580428    0.5403861    0.0520046 
H     3.5646877    2.1694248   -1.0249505 
H     3.9428686    0.7569085   -2.0294353 
C     4.2012355    1.0809163    1.4365400 
N     5.9293249    0.9102966   -0.3434840 
H     4.4776749   -0.5711409    0.1189927 
H     6.5991586    0.6017054    0.4031792 
H     6.1978916    0.3736402   -1.2021755 
H    -2.0228322    2.0263017    1.6501435 
H    -1.8829344   -0.1059365    0.4183451 
H    -0.0829592    3.5227483    1.7265500 
H     1.9914350    2.9110863    0.5817953 
H     2.3648709   -1.3724109   -1.8775371 
O     3.6006376    0.2371001    2.3618519 
O     4.4351767    2.4096840    1.7892342 
H     4.9111498    2.8965175    1.0431018 
