27
 energy: -5.226917916948 gnorm: 0.000503862669 xtb: 6.6.0 (2ccbbd7)
C           -1.44649965270506        2.45567942342244        0.12543811266292
C           -1.27303353071240        1.16033387264446       -0.27838466226472
C            0.03231911535926        0.67843473224232       -0.43790108713524
C           -0.34690810823704        3.29271570982600        0.37544280716791
C            0.93541428183832        2.84185012680162        0.22481699785922
C            1.13938998225110        1.51301217078657       -0.18660992397385
N            0.52154838129798       -0.55472807980845       -0.82993310180837
C            2.31559448532259        0.74118706246645       -0.42999758449699
C            1.89180837389205       -0.50236026655479       -0.82957873452305
H           -0.05470507658235       -1.35784432046828       -1.08893307437117
C            3.72249619457958        1.23713766336976       -0.32672307583350
C            4.75994511750649        0.16933185596238        0.05030578692520
H            3.75238685296009        2.03750038901813        0.41931428227039
H            4.00531511165362        1.69418959342296       -1.28061700570921
C            4.94223957614081       -0.83904030706712       -1.06298965464253
N            4.41862564918561       -0.50617537741741        1.29080607686994
H            5.73476324751871        0.66110813885425        0.20105906743322
H            3.52077495402747       -0.95075058629276        1.16768000398605
H            5.07784543164628       -1.25621017664863        1.44885403999644
H           -2.44360795757396        2.84314480430358        0.25400446577333
H           -2.10876949650012        0.51240606434562       -0.47272086785796
H           -0.51918124699856        4.30836630877757        0.69087012496856
H            1.77907122591977        3.48122674330730        0.41397445091438
H            2.53503752922379       -1.32962272765625       -1.07872218659690
O            4.40245063311431       -1.91992117284424       -0.99131462012783
O            5.70072773307521       -0.44898971088454       -2.11072740435647
H            5.72533907149332       -1.19560812081736       -2.74018864575792
