27
Energy =
C    -0.6618106    3.2467650    0.5562571 
C    -0.8650173    1.9087006    0.7195748 
C     0.1105153    1.0606445    0.3322124 
C     0.5055807    3.7053553    0.0114654 
C     1.4781633    2.8297349   -0.3728299 
C     1.2554811    1.5018726   -0.1967308 
N     0.0915709   -0.3593285    0.4139917 
C     2.0298137    0.4499057   -0.4919502 
C     1.3909991   -0.6895783   -0.1192963 
H    -0.6658757   -1.0062362    0.7284897 
C     3.3974598    0.4155127   -1.1471568 
C     4.4045067   -0.4340201   -0.3241229 
H     3.8082880    1.4385784   -1.2766127 
H     3.2856092   -0.0267180   -2.1604987 
C     3.8190362   -1.7542001    0.1884869 
N     4.9207227    0.3966672    0.7769608 
H     5.2517426   -0.7228799   -0.9882156 
H     4.1453120    0.5634108    1.4638940 
H     5.6450751   -0.1555064    1.2972425 
H    -1.4312950    3.9514752    0.8608330 
H    -1.7853071    1.5285288    1.1498071 
H     0.6596741    4.7741320   -0.1152578 
H     2.4027320    3.1998836   -0.8036124 
H     1.7995473   -1.8311721   -0.5348711 
O     2.4327787   -1.8705608    0.4325139 
O     4.6492810   -2.8052135    0.5281268 
H     4.0830887   -3.5411623    0.9310544 
