27
Energy =
C    -1.9346218    1.9307727   -0.3037905 
C    -1.4497304    0.6842686   -0.5692890 
C    -0.1283971    0.4638009   -0.4060192 
C    -1.0918361    2.9247823    0.1114425 
C     0.2411434    2.6760240    0.2684082 
C     0.6992292    1.4255428    0.0048304 
N     0.5765112   -0.7473614   -0.6393044 
C     1.9461944    0.9332291    0.0761051 
C     1.9154581   -0.3544592   -0.3085211 
H     0.2153958   -1.6739605   -0.9642354 
C     3.1939507    1.6782485    0.4933208 
C     3.8558655    2.4274415   -0.6774562 
H     3.9213203    0.9550988    0.9252724 
H     2.9609129    2.4032185    1.3040846 
C     5.1686556    3.0636633   -0.2302326 
N     2.9078379    3.4256989   -1.2136249 
H     4.1345959    1.6939221   -1.4711183 
H     3.4376837    4.1391935   -1.7720509 
H     2.2839626    2.9521831   -1.9095753 
H    -2.9952170    2.1357694   -0.4292139 
H    -2.1036480   -0.1133319   -0.9060503 
H    -1.4864344    3.9191599    0.3100854 
H     0.9227342    3.4676269    0.5743659 
H     2.7807115   -1.0118959   -0.3611597 
O     6.2318675    3.1560448   -1.1208366 
O     5.3175052    3.5772706    1.0541054 
H     6.2436691    3.9761672    1.1332745 
