27
Energy =
C    -1.0772302    1.3941358   -1.2950517 
C    -1.0250727    0.5964998   -0.1906473 
C     0.1476404    0.4939383    0.4694732 
C     0.0384500    2.0652023   -1.7134664 
C     1.2122081    1.9446233   -1.0291909 
C     1.2401682    1.1471005    0.0695917 
N     0.4153086   -0.2838573    1.6277511 
C     2.2531149    0.8619837    0.9040175 
C     1.8029860    0.0064575    1.8388516 
H    -0.2280278   -0.9006772    2.1747854 
C     3.6792698    1.3577568    0.8121269 
C     4.5484109    0.4259720   -0.0501244 
H     4.1031428    1.4319013    1.8389680 
H     3.7071806    2.3860639    0.3875540 
C     6.0262952    0.7485304    0.1276081 
N     4.1008190    0.5356744   -1.4549021 
H     4.4290920   -0.6212613    0.3184146 
H     4.8893181    0.7870047   -2.0992578 
H     3.7192241   -0.3849547   -1.7771516 
H    -2.0085873    1.4945394   -1.8465981 
H    -1.8995671    0.0545802    0.1528509 
H    -0.0084109    2.6958699   -2.5979788 
H     2.0995328    2.4707098   -1.3690012 
H     2.4041328   -0.4160396    2.6411610 
O     6.4756857    2.0617820    0.0824680 
O     6.9462887   -0.2761713    0.2987226 
H     7.1580956   -0.6782084   -0.6027575 
