27
Energy =
C    -1.0754290    3.0255288   -1.4395416 
C    -1.1844071    1.7552901   -0.9574051 
C    -0.0617510    1.1272757   -0.5493315 
C     0.1459357    3.6367713   -1.5020979 
C     1.2664764    2.9822559   -1.0829655 
C     1.1351837    1.7162333   -0.6055609 
N     0.0391314   -0.1848193   -0.0154443 
C     2.0655635    0.8685674   -0.1337810 
C     1.4491979   -0.2709649    0.2309974 
H    -0.7056358   -0.9015255    0.1451290 
C     3.5550428    1.1245065    0.0012480 
C     3.9761088    1.5746373    1.4217294 
H     3.8853550    1.8809774   -0.7413663 
H     4.1013361    0.1894276   -0.2578582 
C     3.7338429    0.4952003    2.4666121 
N     3.3480175    2.8594061    1.7825393 
H     5.0817795    1.7152321    1.4218008 
H     3.5455652    3.5751016    1.0447823 
H     2.3079686    2.7472991    1.8495952 
H    -1.9641922    3.5550771   -1.7743002 
H    -2.1464633    1.2571339   -0.8990800 
H     0.2241172    4.6512476   -1.8868815 
H     2.2322370    3.4743028   -1.1331040 
H     1.9425740   -1.1300168    0.6817420 
O     4.7254515   -0.4393204    2.7333105 
O     2.5065211    0.3745908    3.1054360 
H     2.5157720    0.9733052    3.9182283 
