27
Energy =
C    -0.5581544    3.3975472   -0.7988682 
C    -0.8723017    2.0822244   -0.6278008 
C     0.1233180    1.2196074   -0.3352193 
C     0.7363723    3.8187494   -0.6713230 
C     1.7246532    2.9273320   -0.3731141 
C     1.3893912    1.6204243   -0.2110407 
N     0.0080350   -0.1756210   -0.1077658 
C     2.1676230    0.5661389    0.0860690 
C     1.3738916   -0.5228089    0.1668264 
H    -0.8417541   -0.7851300   -0.1256399 
C     3.6664723    0.6361668    0.3481412 
C     4.4104693   -0.7162518    0.3759193 
H     3.8253009    1.1554848    1.3175061 
H     4.1332585    1.2646611   -0.4431100 
C     4.2842679   -1.4560999   -0.9483178 
N     3.9558156   -1.5047448    1.5371632 
H     5.5018245   -0.5081258    0.4726960 
H     4.3545269   -2.4736062    1.4760226 
H     4.3404110   -1.0803373    2.4135835 
H    -1.3403878    4.1139637   -1.0365864 
H    -1.8944162    1.7316002   -0.7224331 
H     0.9792469    4.8696786   -0.8083699 
H     2.7514069    3.2658620   -0.2704419 
H     1.7071027   -1.5314316    0.4041463 
O     3.4925451   -2.5931178   -1.0717484 
O     4.9663804   -0.9860897   -2.0612072 
H     4.7573290   -1.5903143   -2.8458354 
