27
Energy =
C    -1.2568500    2.9513879    0.8119661 
C    -1.0941052    1.6633348    1.2268072 
C     0.0207742    1.0046049    0.8469071 
C    -0.3061122    3.5495068    0.0326106 
C     0.8127699    2.8619911   -0.3390394 
C     0.9538756    1.5790719    0.0847069 
N     0.3820790   -0.3288941    1.1763405 
C     1.9459346    0.6980273   -0.1334888 
C     1.6440602   -0.4448165    0.5076939 
H    -0.1372380   -1.0340110    1.7480771 
C     3.2209896    0.9218120   -0.9189456 
C     4.3701837    1.4283874   -0.0155059 
H     3.0503152    1.6400221   -1.7513914 
H     3.5146986   -0.0399914   -1.3933830 
C     4.1041456    2.8295805    0.5019844 
N     5.6437903    1.3702025   -0.7539679 
H     4.4501195    0.7920284    0.8973035 
H     5.8126933    0.4027600   -1.1150851 
H     5.6022794    2.0215304   -1.5757695 
H    -2.1438590    3.5065078    1.1072243 
H    -1.8362600    1.1757721    1.8497817 
H    -0.4394138    4.5811793   -0.2864293 
H     1.5728256    3.3440040   -0.9479270 
H     2.2701983   -1.3339387    0.5287883 
O     3.9035351    3.8853580   -0.3825683 
O     4.0009152    3.0649509    1.8639303 
H     3.8386139    4.0535697    2.0022482 
