27
Energy =
C    -1.3511285    1.3916768   -0.8958244 
C    -0.8342404    0.1517729   -0.6612516 
C     0.4922813    0.0439830   -0.4373739 
C    -0.5350652    2.4894849   -0.8995260 
C     0.8026626    2.3543347   -0.6691576 
C     1.2944236    1.1095324   -0.4397443 
N     1.2249572   -1.1425531   -0.1650815 
C     2.5515576    0.7149080   -0.1850195 
C     2.5503020   -0.6178991   -0.0095916 
H     0.8863964   -2.1296868   -0.0949094 
C     3.7679716    1.6025701   -0.0559379 
C     3.8259734    2.2965486    1.3253203 
H     3.7429862    2.3657421   -0.8676434 
H     4.6951553    1.0098200   -0.2227725 
C     4.8615150    3.4210940    1.3277090 
N     4.0432168    1.3034318    2.3971320 
H     2.8619967    2.8269379    1.5121116 
H     3.1522919    0.7777850    2.5702242 
H     4.7582015    0.5942010    2.1090463 
H    -2.4165293    1.5077840   -1.0794290 
H    -1.4675481   -0.7288866   -0.6522656 
H    -0.9545786    3.4755671   -1.0863505 
H     1.4498927    3.2273290   -0.6709266 
H     3.4250825   -1.2170877    0.2333526 
O     4.5377224    4.6103958    0.6865020 
O     6.1381748    3.2873611    1.8725840 
H     6.2378011    2.4180893    2.3714080 
