27
Energy =
C    -1.4402645    2.4184349   -0.7187342 
C    -1.2976196    1.1406181   -0.2655948 
C    -0.0493283    0.6686487   -0.0645006 
C    -0.3381066    3.1903086   -0.9625396 
C     0.9135121    2.6904104   -0.7530420 
C     1.0314447    1.4163867   -0.2970718 
N     0.3146405   -0.6263980    0.3932832 
C     2.1317410    0.6976149   -0.0195188 
C     1.7455412   -0.5261557    0.3845651 
H    -0.2966443   -1.4255463    0.6769450 
C     3.5709924    1.1523546   -0.1282426 
C     4.3207938    0.8566452   -1.4821498 
H     4.1045288    0.7201853    0.7432096 
H     3.6134875    2.2453417    0.0694954 
C     3.5460663    0.2155791   -2.6581004 
N     5.5839957    0.1173107   -1.2421459 
H     4.5832291    1.8609424   -1.8897717 
H     6.3950035    0.6679752   -1.6120381 
H     5.7950581   -0.0665445   -0.2353240 
H    -2.4341030    2.8223947   -0.8938825 
H    -2.1611827    0.5126968   -0.0749205 
H    -0.4597294    4.2052458   -1.3328454 
H     1.7862841    3.3010048   -0.9615471 
H     2.4225409   -1.3364893    0.6436561 
O     2.1990231   -0.1117974   -2.5802516 
O     4.1799987    0.0041645   -3.8840536 
H     5.1657369    0.2102213   -3.8298748 
