27
Energy =
C    -1.0444826    2.9136655   -1.9275393 
C    -0.5325486    1.7357616   -2.3852465 
C     0.4768821    1.1658796   -1.6944529 
C    -0.5377429    3.4927541   -0.7967644 
C     0.4842572    2.8971910   -0.1165373 
C     0.9773852    1.7241282   -0.5912676 
N     1.1515125   -0.0456459   -2.0014279 
C     1.9683418    0.9520720   -0.1172811 
C     2.1060126   -0.1075162   -0.9336950 
H     0.9876379   -0.7155934   -2.7876788 
C     2.8273629    1.2250342    1.0979657 
C     3.9180089    2.2815246    0.8058632 
H     3.3015621    0.2820560    1.4501442 
H     2.1749003    1.5711391    1.9286220 
C     4.9082839    1.8136725   -0.2542473 
N     4.6008331    2.6447290    2.0596306 
H     3.4510858    3.2000558    0.3804378 
H     3.9096704    2.9512189    2.7830459 
H     5.1238726    1.8155150    2.4352652 
H    -1.8565657    3.3954413   -2.4666241 
H    -0.9196368    1.2650983   -3.2826996 
H    -0.9501194    4.4344804   -0.4412374 
H     0.8890812    3.3590522    0.7787519 
H     2.8460400   -0.8958350   -0.8185251 
O     4.8871923    2.3833501   -1.5206331 
O     5.7926382    0.7710121    0.0026133 
H     5.3012061   -0.1046968   -0.0755956 
