27
Energy =
C    -1.3212893    2.4505438   -0.0800390 
C    -1.1988227    1.1036586   -0.2487328 
C     0.0419982    0.5763557   -0.3076941 
C    -0.2070356    3.2356800    0.0254145 
C     1.0368431    2.6794858   -0.0371005 
C     1.1360387    1.3344115   -0.2064772 
N     0.3839851   -0.7912187   -0.4796469 
C     2.2239514    0.5496990   -0.3011355 
C     1.8148131   -0.7209479   -0.4647351 
H    -0.2417722   -1.6220786   -0.5885218 
C     3.6760507    0.9773765   -0.2543008 
C     4.3503585    0.9007726   -1.6466564 
H     4.2090490    0.3085806    0.4582329 
H     3.7868723    2.0054749    0.1551393 
C     5.8556940    1.0838421   -1.5265314 
N     3.7832950    1.8992840   -2.5777455 
H     4.2058896   -0.1255567   -2.0591213 
H     3.4196789    1.4179986   -3.4336959 
H     2.9817548    2.4309818   -2.1683610 
H    -2.3091409    2.9017607   -0.0290112 
H    -2.0724901    0.4664396   -0.3341527 
H    -0.3130202    4.3097225    0.1601195 
H     1.9157453    3.3105385    0.0468583 
H     2.4720692   -1.5807536   -0.5727945 
O     6.3838271    2.1954675   -0.8804957 
O     6.7208071    0.1027903   -1.9972276 
H     6.7549443   -0.6548603   -1.3322523 
