27
Energy =
C    -1.2055787    2.6343837   -0.6268501 
C    -1.1684181    1.2942972   -0.3792246 
C     0.0346947    0.7106458   -0.1963103 
C    -0.0456993    3.3562465   -0.6871619 
C     1.1581216    2.7429724   -0.4990281 
C     1.1713230    1.4076286   -0.2522204 
N     0.2911021   -0.6619238    0.0659932 
C     2.2059519    0.5792501   -0.0345767 
C     1.7220695   -0.6619736    0.1501553 
H    -0.3834286   -1.4544745    0.1696627 
C     3.6772496    0.9320086   -0.0388770 
C     4.2976990    0.7619417   -1.4402246 
H     4.2061740    0.2753894    0.6883163 
H     3.8290857    1.9728030    0.3219608 
C     5.8248225    0.8409367   -1.3928742 
N     3.7222634    1.7682559   -2.3490069 
H     4.0400005   -0.2575408   -1.8092095 
H     4.1022489    2.7154665   -2.1058815 
H     4.0359856    1.5693107   -3.3287591 
H    -2.1610357    3.1301888   -0.7792796 
H    -2.0786617    0.7063691   -0.3305891 
H    -0.0823045    4.4241483   -0.8887333 
H     2.0774770    3.3169365   -0.5532620 
H     2.3268584   -1.5481936    0.3288520 
O     6.4472736    1.6606926   -0.4589979 
O     6.6158524    0.1447486   -2.3061290 
H     6.0635501   -0.3668825   -2.9778901 
