27
Energy =
C    -1.4727374    1.9999054   -1.5394529 
C    -0.6131956    1.3309496   -2.3599340 
C     0.6110986    1.0191174   -1.8857639 
C    -1.0903369    2.3417103   -0.2713120 
C     0.1541784    2.0163593    0.1839658 
C     0.9917709    1.3487057   -0.6507821 
N     1.6514105    0.3393042   -2.5728462 
C     2.2491338    0.9248429   -0.4481528 
C     2.6786021    0.3242609   -1.5717989 
H     1.6671564   -0.0510093   -3.5429299 
C     3.0740289    1.1161497    0.8058048 
C     3.6784800    2.5330652    0.8894469 
H     3.8864747    0.3557699    0.8557094 
H     2.4318599    0.9278799    1.6937357 
C     4.8921186    2.7407502   -0.0228623 
N     4.0127446    2.7941643    2.2958110 
H     2.9265557    3.2805096    0.5466065 
H     3.4304650    3.4729188    2.8409583 
H     4.8534220    2.3195925    2.7055963 
H    -2.4654267    2.2633616   -1.8964475 
H    -0.8986924    1.0546994   -3.3694074 
H    -1.7821277    2.8760813    0.3761178 
H     0.4606385    2.2886285    1.1899491 
H     3.6725960   -0.0961713   -1.7157090 
O     5.3663999    1.7098727   -0.8268668 
O     5.5351656    3.9756705   -0.0817242 
H     5.1850587    4.5952908    0.6337708 
