27
Energy =
C    -1.1295503    2.6284543   -1.4678213 
C    -1.1820977    1.4235308   -0.8322886 
C    -0.0383475    0.9174375   -0.3250459 
C     0.0586494    3.2955318   -1.5827093 
C     1.2012015    2.7626561   -1.0618570 
C     1.1251204    1.5622008   -0.4314625 
N     0.1234514   -0.3151074    0.3628384 
C     2.0869880    0.8331509    0.1579640 
C     1.5307030   -0.2950064    0.6342223 
H    -0.5923548   -1.0383183    0.6045776 
C     3.5605927    1.1632080    0.2456392 
C     4.3443269    0.5655912   -0.9377095 
H     3.9625388    0.7604122    1.2032332 
H     3.7133598    2.2637148    0.2868754 
C     5.8421969    0.6606722   -0.6920893 
N     3.9383185    1.2409873   -2.1832074 
H     4.1075334   -0.5219395   -1.0113558 
H     4.3108324    2.2220423   -2.1829992 
H     4.3861795    0.7595686   -2.9984562 
H    -2.0355601    3.0591334   -1.8867867 
H    -2.1156897    0.8799776   -0.7347262 
H     0.0939782    4.2545406   -2.0939378 
H     2.1437988    3.2914394   -1.1594384 
H     2.0690217   -1.0908909    1.1443188 
O     6.4661981    1.8986454   -0.6218607 
O     6.5943688   -0.4900440   -0.5050644 
H     6.7916515   -0.9056731   -1.4036193 
