27
Energy =
C    -0.7293671    3.2744234    0.1348958 
C    -0.9544374    1.9307540    0.1843571 
C     0.1034632    1.1004770    0.0711222 
C     0.5407832    3.7546198   -0.0269974 
C     1.5937306    2.8948668   -0.1374483 
C     1.3460507    1.5605822   -0.0850336 
N     0.0851518   -0.3199690    0.0865585 
C     2.1919118    0.5213196   -0.1777739 
C     1.4784449   -0.6140126   -0.0798337 
H    -0.7278226   -0.9697756    0.1886883 
C     3.6921888    0.5780525   -0.3723921 
C     4.1297760    0.5963569   -1.8527880 
H     4.1554629   -0.3054133    0.1215397 
H     4.1041419    1.4694320    0.1504187 
C     3.6579139    1.8377214   -2.6169886 
N     3.7895716   -0.6858506   -2.5005738 
H     5.2423326    0.6879257   -1.8493009 
H     2.7541571   -0.8080380   -2.5750488 
H     4.1592320   -0.6843651   -3.4821020 
H    -1.5633101    3.9665956    0.2185022 
H    -1.9559392    1.5332186    0.3075666 
H     0.7128649    4.8272775   -0.0763417 
H     2.5994923    3.2799901   -0.2801836 
H     1.8976355   -1.6172994   -0.1252911 
O     4.5235466    2.9179070   -2.7267209 
O     2.3848807    1.9510993   -3.1760165 
H     1.7914277    1.1740307   -2.9382618 
