27
Energy =
C    -1.7912980    1.5769139    0.4151583 
C    -1.2747255    0.3325212    0.2091359 
C     0.0405599    0.2246903   -0.0738205 
C    -0.9858824    2.6788225    0.3345730 
C     0.3401245    2.5440039    0.0465230 
C     0.8342590    1.2950299   -0.1542209 
N     0.7700186   -0.9707955   -0.3131208 
C     2.0842625    0.8943438   -0.4421996 
C     2.0856301   -0.4475974   -0.5364237 
H     0.4327490   -1.9608311   -0.3275305 
C     3.3168915    1.7621821   -0.5910492 
C     4.1315613    1.8282753    0.7215399 
H     3.0373462    2.7877160   -0.9181593 
H     3.9501404    1.3383379   -1.4008112 
C     3.3634556    2.5250523    1.8352520 
N     5.4245441    2.4886326    0.4747120 
H     4.3267121    0.7933481    1.0859499 
H     5.9544304    1.9755193   -0.2681373 
H     5.2596379    3.4658750    0.1287093 
H    -2.8463863    1.6934661    0.6497430 
H    -1.8991237   -0.5521515    0.2740524 
H    -1.4012859    3.6687208    0.5074053 
H     0.9739725    3.4232921   -0.0103177 
H     2.9629632   -1.0575588   -0.7380764 
O     2.9508157    3.8447475    1.6921259 
O     3.0607571    1.8451584    3.0071067 
H     3.8738315    1.8640296    3.6055887 
