27
Energy =
C    -1.2672029    2.5982577    0.3828749 
C    -1.1639417    1.3023682    0.7905837 
C     0.0229533    0.6774894    0.6422983 
C    -0.1879417    3.2361637   -0.1609616 
C     1.0005247    2.5818368   -0.3000194 
C     1.0831396    1.2878686    0.1135797 
N     0.3341380   -0.6556180    0.9976708 
C     2.1336990    0.4419119    0.0801329 
C     1.7104497   -0.7339138    0.6046029 
H    -0.2719345   -1.3884821    1.4321655 
C     3.5045508    0.8482690   -0.4785770 
C     4.7512881   -0.1017956   -0.4984950 
H     3.8054155    1.7574123    0.0875430 
H     3.3135119    1.2060788   -1.5163188 
C     5.2577829   -0.3456030   -1.9160505 
N     4.5477128   -1.3580832    0.2366844 
H     5.5841398    0.4502541   -0.0006763 
H     4.1352349   -2.0702581   -0.4156228 
H     5.4824681   -1.7502565    0.5047387 
H    -2.2118725    3.1256110    0.4898046 
H    -2.0107804    0.7803879    1.2232530 
H    -0.2778130    4.2701758   -0.4854338 
H     1.8530607    3.0952183   -0.7342967 
H     2.2757100   -1.6405724    0.7386803 
O     4.4557991   -0.9870954   -2.8496377 
O     6.5167396    0.0987253   -2.2969764 
H     6.4793109    1.0907210   -2.4788693 
