27
Energy =
C    -1.3639194    2.4331674   -0.1046178 
C    -1.1707035    1.0836388   -0.0757645 
C     0.0929856    0.6168754   -0.1569297 
C    -0.2955820    3.2804847   -0.2128567 
C     0.9724074    2.7837829   -0.2926578 
C     1.1398488    1.4365976   -0.2619097 
N     0.5110797   -0.7408718   -0.1394363 
C     2.2655121    0.7081021   -0.3196742 
C     1.9329960   -0.5925154   -0.2466124 
H    -0.0647023   -1.6108609   -0.0652084 
C     3.6796602    1.2345846   -0.4075753 
C     4.1951471    1.7512851    0.9577696 
H     3.7122181    2.0523644   -1.1627455 
H     4.3629769    0.4435076   -0.7920297 
C     5.4750074    2.5515391    0.7971874 
N     4.3882326    0.6319958    1.8973357 
H     3.4627716    2.4734427    1.3889810 
H     3.4753710    0.1517976    2.0786115 
H     5.0437084   -0.0739637    1.4823488 
H    -2.3715325    2.8367357   -0.0413113 
H    -2.0066832    0.3977738    0.0104946 
H    -0.4578006    4.3557611   -0.2358113 
H     1.8199388    3.4576131   -0.3801400 
H     2.6389463   -1.4201857   -0.2550443 
O     6.4678168    2.1337977   -0.0800534 
O     5.6809295    3.6917969    1.5589328 
H     6.0048510    3.4034123    2.4711330 
