27
Energy =
C    -0.5700327    2.1967263    1.9066404 
C    -0.8521418    1.0168337    1.2843510 
C     0.0024183    0.5721060    0.3394012 
C     0.5555507    2.8992508    1.5748160 
C     1.4052361    2.4274041    0.6178194 
C     1.1009937    1.2527159    0.0083148 
N    -0.0959686   -0.6304810   -0.4103839 
C     1.7671915    0.5778216   -0.9413358 
C     1.0900471   -0.5520888   -1.2119996 
H    -0.8327345   -1.3723349   -0.3845264 
C     3.0827686    0.9665154   -1.5832175 
C     4.3693898    0.4640339   -0.8466231 
H     3.1277532    2.0721565   -1.6833353 
H     3.0663822    0.5909211   -2.6334561 
C     5.2766064   -0.3136902   -1.7853746 
N     4.0795252   -0.3195483    0.3693099 
H     4.9713527    1.3527651   -0.5470917 
H     3.5237345    0.2457555    1.0517143 
H     3.5404746   -1.1837572    0.1210948 
H    -1.2412500    2.5785377    2.6719403 
H    -1.7376330    0.4445028    1.5395362 
H     0.7755545    3.8376183    2.0784701 
H     2.3024039    2.9828551    0.3614520 
H     1.4077628   -1.3149877   -1.9204481 
O     6.5921555    0.0887972   -1.9842001 
O     4.7886928   -1.4086721   -2.4904732 
H     5.5468994   -1.8033981   -3.0322074 
