27
Energy =
C    -1.3888405    2.2263260   -0.6019825 
C    -1.2343975    1.0432328    0.0581363 
C     0.0155985    0.5622866    0.2244626 
C    -0.2965160    2.8975849   -1.0785001 
C     0.9567737    2.3904558   -0.8976420 
C     1.0858348    1.2114279   -0.2360613 
N     0.3937540   -0.6417131    0.8769114 
C     2.1904506    0.5115201    0.0674924 
C     1.8194757   -0.5969158    0.7322190 
H    -0.2073888   -1.3639904    1.3357487 
C     3.6185970    0.8944248   -0.2521386 
C     4.1484296    1.9969937    0.6977388 
H     3.6633863    1.2446778   -1.3089813 
H     4.2827843    0.0023552   -0.1987318 
C     5.4223631    2.6123278    0.1338525 
N     4.3161428    1.4863074    2.0807066 
H     3.4114771    2.8314936    0.7271431 
H     4.1199086    0.4612029    2.1512181 
H     5.3036740    1.6027170    2.4158512 
H    -2.3844518    2.6371831   -0.7500011 
H    -2.0897782    0.4979734    0.4422761 
H    -0.4274339    3.8404136   -1.6044906 
H     1.8231406    2.9243355   -1.2778616 
H     2.4990346   -1.3559132    1.1127139 
O     6.6042703    1.8839813    0.1073458 
O     5.3998119    3.8904464   -0.4067817 
H     5.4604333    4.5637266    0.3436408 
