27
Energy =
C    -1.3134924    2.9313022    0.7921554 
C    -1.1224471    1.6640670    1.2558430 
C     0.0018912    1.0122227    0.8923029 
C    -0.3810847    3.5158948   -0.0188218 
C     0.7477315    2.8356245   -0.3732786 
C     0.9177366    1.5735991    0.0997289 
N     0.3905067   -0.3005618    1.2697750 
C     1.9242937    0.7028479   -0.0928931 
C     1.6482192   -0.4197601    0.5941604 
H    -0.1105617   -0.9919955    1.8735301 
C     3.1883962    0.9152631   -0.8998853 
C     4.3635567    1.4022305   -0.0169680 
H     3.0187608    1.6399572   -1.7270293 
H     3.4620607   -0.0512011   -1.3772724 
C     4.1135970    2.7923554    0.5408005 
N     5.6321499    1.3718138   -0.7767062 
H     4.4417259    0.7391926    0.8776406 
H     6.3288148    0.7665206   -0.2825415 
H     5.5216216    0.9947604   -1.7467721 
H    -2.2086486    3.4806812    1.0731115 
H    -1.8500914    1.1873506    1.9038031 
H    -0.5369787    4.5312775   -0.3773206 
H     1.4918420    3.3079270   -1.0083589 
H     2.2896529   -1.2968220    0.6423382 
O     3.7683544    3.8496198   -0.2970808 
O     4.1960037    3.0194763    1.9069908 
H     4.0175511    4.0006087    2.0749467 
