27
Energy =
C    -0.8433563    2.1937812   -2.3765960 
C    -0.8628863    0.8912961   -1.9740237 
C     0.1105299    0.4643417   -1.1426248 
C     0.1451752    3.0341509   -1.9441199 
C     1.1197641    2.5777702   -1.1059888 
C     1.0776001    1.2777927   -0.7153514 
N     0.2810592   -0.8457600   -0.6211325 
C     1.9090534    0.5925742    0.0852889 
C     1.4746574   -0.6782020    0.1581382 
H    -0.3077605   -1.6985339   -0.7625731 
C     3.1629094    1.1181326    0.7512571 
C     4.3836630    1.0683749   -0.2009304 
H     3.3840160    0.5238348    1.6676793 
H     2.9821869    2.1619057    1.0868844 
C     4.7630914   -0.3551167   -0.5875042 
N     5.5435477    1.7595769    0.4024887 
H     4.1018464    1.5675096   -1.1584273 
H     5.9011439    2.4914894   -0.2557472 
H     5.3024437    2.2501911    1.2959730 
H    -1.6151846    2.5642313   -3.0465060 
H    -1.6363582    0.2099751   -2.3118483 
H     0.1553789    4.0707717   -2.2719426 
H     1.9062602    3.2452774   -0.7676104 
H     1.9809756   -1.4784774    0.6991337 
O     4.5188899   -1.4255307    0.2669028 
O     5.4251492   -0.5928990   -1.7827875 
H     6.3994070   -0.3681748   -1.6460700 
