27
Energy =
C    -1.4413296    2.2665101   -0.3576919 
C    -1.2351660    0.9392705   -0.5889729 
C     0.0294570    0.4705482   -0.5424858 
C    -0.3847961    3.0907077   -0.0864668 
C     0.8846600    2.5935131   -0.0448269 
C     1.0676824    1.2671973   -0.2793695 
N     0.4550172   -0.8677735   -0.7535073 
C     2.1968170    0.5373845   -0.2991081 
C     1.8709838   -0.7371931   -0.5785006 
H    -0.1134120   -1.7167007   -0.9770926 
C     3.6125678    1.0232287   -0.0702029 
C     4.4330689    1.0604747   -1.3825180 
H     4.1017062    0.3347559    0.6561819 
H     3.6312338    2.0262166    0.4084009 
C     5.9049398    1.2847602   -1.0833648 
N     3.9290877    2.0997166   -2.3075770 
H     4.3819405    0.0561255   -1.8675536 
H     3.6538094    1.6547280   -3.2153062 
H     3.0734506    2.5817921   -1.9476346 
H    -2.4501336    2.6706821   -0.3886623 
H    -2.0622063    0.2715518   -0.8052930 
H    -0.5576244    4.1485266    0.0976594 
H     1.7171741    3.2550464    0.1711600 
H     2.5783471   -1.5595663   -0.6634836 
O     6.8529415    0.3665468   -1.5152187 
O     6.3188272    2.3990508   -0.3661547 
H     6.4447356    3.1559035   -1.0222998 
