27
Energy =
C    -1.4343404    2.4377103   -0.7912509 
C    -1.2874713    1.1909445   -0.2697083 
C    -0.0841614    0.7606977    0.1572890 
C    -0.3893412    3.3014591   -0.8761586 
C     0.9637835    2.9589554   -0.2759558 
C     1.0049659    1.5173340    0.1113496 
N     0.2641825   -0.5907629    0.4293871 
C     2.0989228    0.7451786    0.2092604 
C     1.6953863   -0.5162300    0.4322866 
H    -0.3588142   -1.4196575    0.5700616 
C     3.5627605    1.1763158    0.0822045 
C     3.9532084    2.3912846   -0.8565178 
H     4.1409881    0.2922080   -0.2660728 
H     3.9203165    1.3642981    1.1202525 
C     4.6142762    3.5129929   -0.0615878 
N     2.8343743    2.8920254   -1.6900733 
H     4.7449967    2.0343507   -1.5538496 
H     1.9273550    2.9143429   -0.9962595 
H     3.0228262    3.8743991   -2.0094909 
H    -2.4055907    2.7407616   -1.1758049 
H    -2.1283373    0.5046629   -0.2643424 
H    -0.5331425    4.2880630   -1.3066670 
H     1.1434510    3.6024840    0.6116803 
H     2.3548301   -1.3729528    0.5511270 
O     4.0045972    4.0310741    1.0718618 
O     5.8273815    4.0450044   -0.4779907 
H     6.5766612    3.4334985   -0.1890144 
