27
Energy =
C    -1.2739604    2.0310221    0.5472997 
C    -1.1327159    0.7645503    0.0643035 
C     0.0978044    0.3556564   -0.3099909 
C    -0.1881438    2.8556272    0.6454520 
C     1.0452834    2.4205216    0.2588730 
C     1.1640096    1.1544107   -0.2211046 
N     0.4527332   -0.9135143   -0.8400504 
C     2.2468233    0.4929735   -0.6674845 
C     1.8604636   -0.7399265   -1.0434484 
H    -0.1538547   -1.7425842   -1.0349050 
C     3.6670843    1.0129526   -0.7821100 
C     4.6376962    0.3492585    0.2315456 
H     3.7056119    2.1157040   -0.6586834 
H     4.0115880    0.7994112   -1.8174198 
C     4.3814104    0.7855162    1.6739614 
N     6.0395761    0.6230221   -0.1559826 
H     4.4634286   -0.7508580    0.2290015 
H     6.5478081   -0.2764842   -0.3244969 
H     6.1299193    1.2054578   -1.0208268 
H    -2.2529122    2.3849408    0.8599988 
H    -1.9836242    0.0970878   -0.0177266 
H    -0.3064375    3.8617432    1.0399143 
H     1.9046101    3.0754145    0.3553447 
H     2.5184136   -1.5001878   -1.4568816 
O     5.4333832    0.9232393    2.5748910 
O     3.0847659    0.9539840    2.1455513 
H     3.1239099    1.1984115    3.1262928 
