27
Energy =
C     0.9087983    2.3240947   -3.1819288 
C     0.3557763    1.1717629   -2.7122798 
C     0.6118573    0.8019078   -1.4387115 
C     1.7128857    3.0780427   -2.3767319 
C     1.9673661    2.6857736   -1.0968280 
C     1.3954777    1.5388256   -0.6415792 
N     0.1502595   -0.3920384   -0.8115936 
C     1.5167266    0.9487393    0.5553355 
C     0.7067827   -0.3118145    0.5408110 
H    -0.4706995   -1.1277977   -1.2205119 
C     2.4533033    1.2971845    1.6829254 
C     3.5946007    0.2519984    1.9018003 
H     1.8343687    1.3890767    2.6026166 
H     2.9003183    2.3015902    1.5365585 
C     3.6252436   -0.9975033    0.9973859 
N     3.6283634   -0.1097388    3.3303624 
H     4.5522488    0.7672912    1.6530077 
H     2.8138979   -0.7348739    3.5419068 
H     4.4893372   -0.6793754    3.5207323 
H     0.7167082    2.6389225   -4.2046320 
H    -0.2710720    0.5540791   -3.3465600 
H     2.1578290    3.9927988   -2.7612338 
H     2.6141048    3.2903201   -0.4702524 
H     0.7616622   -1.0433240    1.0756894 
O     4.8646386   -1.5343299    0.6639698 
O     2.4637996   -1.6816124    0.5887462 
H     1.5914745   -1.1473870    0.6733147 
