27
Energy =
C    -1.5319944    2.6565870    0.0085738 
C    -1.2919761    1.3196244    0.1231498 
C    -0.0236728    0.8822512   -0.0236242 
C    -0.5046454    3.5218943   -0.2468601 
C     0.7693509    3.0540982   -0.3915900 
C     0.9854688    1.7192898   -0.2751583 
N     0.4346169   -0.4597538    0.0592003 
C     2.1254105    1.0159777   -0.3774064 
C     1.8381905   -0.2829365   -0.1742533 
H    -0.1059457   -1.3388535    0.2300215 
C     3.5188040    1.5519949   -0.6452679 
C     4.2008671    2.1044637    0.6205424 
H     3.4752698    2.3426529   -1.4239513 
H     4.1483158    0.7341717   -1.0622301 
C     4.1754256    1.0913952    1.7636995 
N     3.5948934    3.4101555    0.9554431 
H     5.2862248    2.2400560    0.4002370 
H     3.7531547    3.6272104    1.9705395 
H     4.0878783    4.1623581    0.4191411 
H    -2.5439855    3.0360127    0.1273657 
H    -2.0948495    0.6201623    0.3306963 
H    -0.7038850    4.5882257   -0.3266819 
H     1.5906750    3.7380235   -0.5784984 
H     2.5701494   -1.0880199   -0.1611637 
O     3.2992371    1.2236341    2.8369734 
O     5.0237669   -0.0086555    1.7172056 
H     4.8675675   -0.5731251    2.5425446 
