27
Energy =
C    -1.5350043    0.8273652   -0.8780107 
C    -0.5945859   -0.1361587   -1.0942107 
C     0.6744012    0.1107837   -0.7068351 
C    -1.1858411    2.0102342   -0.2860983 
C     0.1041565    2.2364046    0.0937557 
C     1.0219162    1.2608790   -0.1281468 
N     1.7992548   -0.7441214   -0.8523802 
C     2.3366187    1.2396414    0.1406478 
C     2.8372090    0.0668618   -0.2856684 
H     1.8560088   -1.7069851   -1.2564910 
C     3.1533053    2.3552860    0.7533139 
C     3.5823100    3.3929584   -0.3093752 
H     4.0544499    1.9304887    1.2517109 
H     2.5564421    2.8474439    1.5511029 
C     4.5304667    2.8025632   -1.3434013 
N     4.1842448    4.5629685    0.3533543 
H     2.6860334    3.7247137   -0.8849909 
H     3.4899852    5.0063328    1.0002351 
H     5.0093759    4.2622415    0.9281650 
H    -2.5649482    0.6556911   -1.1809446 
H    -0.8518602   -1.0776097   -1.5677878 
H    -1.9384955    2.7765493   -0.1195552 
H     0.3780386    3.1789634    0.5579369 
H     3.8877923   -0.2173163   -0.2431246 
O     5.5756530    1.9719768   -0.9546706 
O     4.4053867    3.1488194   -2.6810253 
H     4.8593974    4.0401672   -2.8178373 
