27
Energy =
C    -1.2017874    1.7075382    0.5682151 
C    -1.0336307    0.6530261   -0.2795157 
C     0.2027500    0.4129729   -0.7641731 
C    -0.1353167    2.4909175    0.9138668 
C     1.1054964    2.2260508    0.4129057 
C     1.2477034    1.1739583   -0.4342519 
N     0.5939337   -0.6365389   -1.6379882 
C     2.3453624    0.7043438   -1.0475147 
C     2.0002344   -0.3813201   -1.7607064 
H     0.0122490   -1.3889565   -2.0728573 
C     3.7547836    1.2343589   -0.9146094 
C     4.4865087    0.5800387    0.2713289 
H     3.7296580    2.3399499   -0.7941914 
H     4.3216477    1.0407790   -1.8531657 
C     5.7724055    1.3227341    0.5960941 
N     4.7236716   -0.8426615   -0.0375660 
H     3.8477528    0.6674172    1.1826409 
H     5.4681784   -0.9209831   -0.7737855 
H     5.0987983   -1.3238737    0.8139969 
H    -2.1870906    1.9238581    0.9735396 
H    -1.8673571    0.0178985   -0.5589140 
H    -0.2766135    3.3278961    1.5937415 
H     1.9514611    2.8459108    0.6950290 
H     2.6966448   -1.0049705   -2.3179143 
O     6.7077497    1.5806864   -0.3968756 
O     6.0311231    1.7334054    1.8957197 
H     6.3589124    0.9418402    2.4296700 
