27
Energy =
C    -1.5073858    2.5320652    0.0138000 
C    -1.3004838    1.2047639    0.2221936 
C    -0.0507168    0.7112343    0.3143105 
C    -0.4750631    3.4081438   -0.0930855 
C     0.9602168    2.9638897    0.1305381 
C     1.0278546    1.4762573    0.2293760 
N     0.3136917   -0.6615033    0.2407378 
C     2.1035590    0.7203400   -0.0222564 
C     1.7264614   -0.5671909    0.0077135 
H    -0.2919731   -1.5117803    0.3242994 
C     3.5204392    1.2297736   -0.2648588 
C     3.7285630    2.4823992   -1.2098852 
H     4.1305531    0.3939525   -0.6733316 
H     3.9456179    1.4304378    0.7439340 
C     4.6729315    3.4624165   -0.5307942 
N     2.4771272    3.1552778   -1.6446770 
H     4.2369151    2.1258634   -2.1320008 
H     1.7444288    3.0505518   -0.7789559 
H     2.6487511    4.1689659   -1.8678462 
H    -2.5236162    2.8971483   -0.1068202 
H    -2.1459149    0.5237759    0.2417941 
H    -0.6779366    4.4568252   -0.2839381 
H     1.3814996    3.4366610    1.0420033 
H     2.3856218   -1.4184221   -0.1550658 
O     4.1642488    4.4530208    0.3036910 
O     6.0493936    3.3447724   -0.6800484 
H     6.3384129    3.8135072   -1.5271334 
