27
Energy =
C    -1.2200831    3.0181688   -0.1968079 
C    -1.2385289    1.6571289   -0.1307899 
C    -0.0613602    0.9983391   -0.1683082 
C    -0.0318562    3.6867127   -0.2961357 
C     1.1456507    2.9971132   -0.3349888 
C     1.1042379    1.6411674   -0.2693899 
N     0.1351462   -0.4064171   -0.1041986 
C     2.1029899    0.7398058   -0.2847673 
C     1.5635479   -0.4876792   -0.1780893 
H    -0.5736394   -1.1721453   -0.0321990 
C     3.5920738    1.0079744   -0.3780378 
C     4.2218915    1.2918345    1.0080804 
H     3.7955328    1.8542529   -1.0708544 
H     4.0775550    0.1122371   -0.8245101 
C     3.7693097    2.6344016    1.5463464 
N     5.6984959    1.2424823    0.9348922 
H     3.8530338    0.5300098    1.7368301 
H     6.0564987    0.5213562    1.6047759 
H     6.0509548    0.9768064   -0.0143587 
H    -2.1540504    3.5737416   -0.1595812 
H    -2.1721434    1.1114836   -0.0434236 
H    -0.0255449    4.7741037   -0.3308984 
H     2.0890967    3.5310810   -0.3931179 
H     2.1268348   -1.4174889   -0.1444207 
O     2.8175827    2.7028491    2.5508076 
O     4.1952068    3.8143434    0.9536655 
H     5.0643182    4.0733950    1.3974706 
