27
Energy =
C    -1.4490701    0.6294303    0.3894118 
C    -0.9053346   -0.4265272   -0.2794145 
C     0.3951325   -0.3584138   -0.6335313 
C    -0.6846500    1.7229937    0.6881935 
C     0.6276912    1.7682484    0.3197417 
C     1.1489116    0.7048657   -0.3459492 
N     1.1479469   -1.3449362   -1.3251986 
C     2.3926247    0.4996771   -0.8112903 
C     2.4318019   -0.7118754   -1.3937760 
H     0.8423788   -2.2766580   -1.6893177 
C     3.5845540    1.4233987   -0.6834159 
C     4.4820623    1.0516289    0.5066480 
H     3.2643311    2.4837920   -0.5857856 
H     4.1828779    1.3664027   -1.6188410 
C     3.7521295    1.2345245    1.8332218 
N     5.7103623    1.8673361    0.4092502 
H     4.7408167   -0.0325246    0.4414553 
H     5.9533377    2.3009600    1.3335270 
H     6.5177292    1.2542560    0.1477521 
H    -2.4934637    0.6000637    0.6894915 
H    -1.4965791   -1.3031586   -0.5210577 
H    -1.1233320    2.5599129    1.2261505 
H     1.2301526    2.6373208    0.5650247 
H     3.3145030   -1.1611552   -1.8431466 
O     3.5424865    0.1447414    2.6693534 
O     3.2897127    2.4858307    2.2236419 
H     2.8483041    2.3976214    3.1298300 
