24
Energy =
C     0.2058714    2.3700147   -1.8284171 
C    -0.5652930    2.6426438   -0.7505666 
C    -0.5295197    1.8297785    0.3302054 
C     1.0252222    1.2878114   -1.8249055 
C     1.0782704    0.4734582   -0.7337794 
C     0.2880406    0.7462801    0.3415100 
O    -1.4037223    3.7532060   -0.7578720 
H    -0.9167633    4.5715197   -0.4095667 
H     0.2974450    0.0928650    1.2102179 
H     1.6329249    1.0760728   -2.7011383 
H     0.1543463    3.0208648   -2.6943014 
H    -1.1660478    2.0485447    1.1809201 
C     1.9731193   -0.7461744   -0.7355928 
C     1.2470880   -1.9780010   -1.3107075 
H     2.3279340   -0.9674232    0.2959104 
H     2.8881235   -0.5324118   -1.3346258 
C     2.2327246   -3.1017052   -1.5923989 
O     2.9829827   -3.0829296   -2.7610658 
O     2.4309395   -4.1246265   -0.6734414 
H     3.1361881   -4.7550362   -1.0341548 
N     0.1680820   -2.3850250   -0.3901042 
H     0.8072531   -1.7092032   -2.2997852 
H    -0.3290062   -3.2138580   -0.7957315 
H     0.5947368   -2.7323013    0.5027846 
