24
Energy =
C     0.6149356    2.0247581    0.7078567 
C     0.3389152    2.8510573   -0.3268253 
C     0.5342273    2.4197199   -1.6017051 
C     1.0880752    0.7730605    0.4815283 
C     1.2943524    0.3396956   -0.7919510 
C     1.0061141    1.1682828   -1.8337601 
O    -0.1454170    4.1344935   -0.0536542 
H    -0.3326296    4.6898586   -0.8811994 
H     1.1490398    0.8334983   -2.8584163 
H     1.2904313    0.1184006    1.3254493 
H     0.4473525    2.3768489    1.7198859 
H     0.3102603    3.0733871   -2.4379354 
C     1.7999505   -1.0627776   -1.0494014 
C     0.6385474   -2.0599325   -1.2180417 
H     2.4579855   -1.3973724   -0.2160280 
H     2.4382375   -1.0660857   -1.9620155 
C     1.1465122   -3.3840775   -1.7651832 
O     1.0054472   -3.6778565   -3.1146318 
O     1.8111528   -4.2823549   -0.9411221 
H     2.0821362   -5.0853128   -1.4950712 
N    -0.0628280   -2.2147110    0.0705600 
H    -0.0722946   -1.6646657   -1.9815522 
H    -0.9089960   -2.8149288   -0.0756036 
H     0.5517261   -2.7485636    0.7333648 
