24
Energy =
C     0.5226435    1.6188518    1.1572621 
C     0.1877721    2.6439815    0.3398303 
C     0.3895756    2.5397209   -0.9938390 
C     1.0709119    0.4879927    0.6442986 
C     1.2922564    0.3823043   -0.6954735 
C     0.9402092    1.4135688   -1.5140340 
O    -0.3755237    3.8007698    0.8697344 
H     0.3455297    4.4629174    1.1341538 
H     1.0836897    1.3389441   -2.5902146 
H     1.3263414   -0.3314562    1.3119010 
H     0.3396485    1.7099763    2.2224784 
H     0.0985336    3.3601618   -1.6415128 
C     1.8765909   -0.8889819   -1.2719665 
C     0.7842902   -1.9166447   -1.6158451 
H     2.5818001   -1.3432851   -0.5400588 
H     2.4826403   -0.6643100   -2.1790098 
C    -0.1178622   -1.4176797   -2.7514022 
O     0.3624335   -1.4175414   -4.0560726 
O    -1.3849099   -0.8879297   -2.5061317 
H    -1.6053867   -0.8658807   -1.5214584 
N     1.4392669   -3.1954192   -1.9385143 
H     0.1533102   -2.0756713   -0.7121571 
H     0.7051307   -3.9320189   -2.0685789 
H     1.9408872   -3.1174729   -2.8574492 
