24
Energy =
C     0.1602140    2.1872744   -2.1186586 
C    -0.1770681    2.8066278   -0.9558950 
C     0.1756169    2.2492995    0.2248119 
C     0.8490921    1.0181773   -2.0940326 
C     1.2137641    0.4620180   -0.9055380 
C     0.8656326    1.0812757    0.2552569 
O    -0.8861691    4.0123536   -0.9462162 
H    -1.1180356    4.3632133   -1.8690619 
H     1.1279631    0.6407327    1.2138935 
H     1.1043058    0.5310010   -3.0317978 
H    -0.1229788    2.6238704   -3.0702153 
H    -0.1063506    2.7482705    1.1454038 
C     1.9621107   -0.8521910   -0.8749282 
C     0.9961019   -2.0526089   -0.8282858 
H     2.6420358   -0.8907959    0.0062468 
H     2.6229047   -0.9275983   -1.7677445 
C     1.7301303   -3.3534024   -1.1069572 
O     1.2805207   -4.2063630   -2.1070539 
O     2.8547687   -3.6997936   -0.3679151 
H     3.1929099   -4.5990527   -0.6869523 
N     0.3103868   -2.0729021    0.4765746 
H     0.2416250   -1.9445583   -1.6433997 
H    -0.4216672   -2.8229536    0.4657274 
H     0.9959680   -2.3441198    1.2231806 
