24
Energy =
C     0.5379744    1.6814931    1.0791059 
C     0.3911169    2.7314902    0.2271539 
C     0.7176842    2.5846339   -1.0770763 
C     1.0112875    0.4939842    0.6232733 
C     1.3498093    0.3487502   -0.6870940 
C     1.1942366    1.4006225   -1.5374414 
O    -0.0940308    3.9681502    0.6646811 
H    -0.3186928    3.9988588    1.6532144 
H     1.4401665    1.2984022   -2.5923376 
H     1.1176783   -0.3387012    1.3141289 
H     0.2751156    1.7887725    2.1260043 
H     0.5879144    3.4263281   -1.7487689 
C     1.8500919   -0.9832496   -1.2011805 
C     0.6925447   -1.9182845   -1.6017452 
H     2.4725165   -1.4717615   -0.4189806 
H     2.5260331   -0.8389336   -2.0761943 
C    -0.1265467   -1.3247134   -2.7568487 
O     0.3571395   -1.3926221   -4.0584243 
O    -1.3261722   -0.6472651   -2.5273467 
H    -1.5420132   -0.5774404   -1.5443435 
N     1.2647738   -3.2281844   -1.9541013 
H     0.0102950   -2.0487103   -0.7306413 
H     1.6439544   -3.6871986   -1.0923924 
H     0.5077213   -3.8585161   -2.3126442 
