24
Energy =
C    -0.5300511    1.5736793    0.7386036 
C    -0.6127131    2.5539746   -0.2001349 
C     0.1556103    2.4822292   -1.3108905 
C     0.3212352    0.5312305    0.5627247 
C     1.1020674    0.4632672   -0.5504971 
C     1.0080354    1.4416694   -1.4922877 
O    -1.4792072    3.6414991   -0.0501734 
H    -2.0205861    3.6226682    0.8072042 
H     1.6116598    1.3989576   -2.3955573 
H     0.3674324   -0.2557498    1.3124816 
H    -1.1477854    1.6186883    1.6290328 
H     0.0763120    3.2682068   -2.0540185 
C     2.0349392   -0.7095532   -0.7590846 
C     1.3233922   -1.8838562   -1.4518255 
H     2.4415785   -1.0621149    0.2163418 
H     2.9146433   -0.3873625   -1.3606091 
C     2.3341345   -2.9272834   -1.9094114 
O     2.2525998   -3.4612599   -3.1894065 
O     3.3306462   -3.3729542   -1.0491634 
H     3.8858929   -4.0715325   -1.5269187 
N     0.3124844   -2.4336073   -0.5216149 
H     0.8350555   -1.5098739   -2.3839023 
H    -0.6425046   -2.2935329   -0.9280168 
H     0.4316431   -3.4685454   -0.3948531 
