24
Energy =
C    -0.6491869    1.1475677    1.0477459 
C    -0.8365871    2.3532602    0.4495995 
C    -0.0757752    2.6969265   -0.6135280 
C     0.2972574    0.2939038    0.5803706 
C     1.0608885    0.6331658   -0.4961711 
C     0.8698148    1.8462716   -1.0874621 
O    -1.7999449    3.2572621    0.9072570 
H    -2.3431585    2.9204082    1.6949196 
H     1.4688409    2.1459496   -1.9436173 
H     0.4302262   -0.6691228    1.0671459 
H    -1.2579726    0.8620577    1.8990818 
H    -0.2357189    3.6631928   -1.0803046 
C     2.1243862   -0.3160796   -1.0235857 
C     1.5618538   -1.5388775   -1.7975051 
H     2.7455029   -0.6740818   -0.1715089 
H     2.8268351    0.2260651   -1.6950892 
C     0.8456782   -2.5220846   -0.8783391 
O     1.5768921   -3.4949741   -0.2085081 
O    -0.5150421   -2.3997111   -0.6147797 
H    -0.8093950   -3.1656250   -0.0209107 
N     0.7693599   -1.1349350   -2.9855223 
H     2.4377741   -2.1168233   -2.1705762 
H    -0.1940226   -1.5504446   -2.9453813 
H     0.6186593   -0.1026577   -3.0326963 
