24
Energy =
C    -0.9211276    1.6948885   -1.7003114 
C    -0.9709728    2.3329988   -0.5081917 
C    -0.0710042    2.0352927    0.4569575 
C     0.0373853    0.7629977   -1.9357975 
C     0.9567658    0.4693245   -0.9740823 
C     0.8910141    1.1053746    0.2284448 
O    -1.9550390    3.2877370   -0.2707352 
H    -1.6413257    4.2059959   -0.5648848 
H     1.6002980    0.8650234    1.0164434 
H     0.0605189    0.2520105   -2.8950581 
H    -1.6594732    1.9317552   -2.4584280 
H    -0.1322369    2.5405345    1.4149568 
C     2.0118584   -0.5850405   -1.2245387 
C     1.5108287   -1.9887116   -0.8316343 
H     2.9403857   -0.3458888   -0.6586420 
H     2.2989063   -0.5735064   -2.3010270 
C     2.4449066   -3.0634341   -1.3599533 
O     3.6344101   -3.3588008   -0.7041601 
O     2.1348260   -3.7257176   -2.5389796 
H     2.8713129   -4.3898849   -2.7437329 
N     1.3427095   -2.0575356    0.6326670 
H     0.5296345   -2.1764491   -1.3289212 
H     0.9659304   -3.0006923    0.8917920 
H     2.2828667   -1.9883411    1.0923351 
