24
Energy =
C    -1.2099229    1.8012899   -0.5382076 
C    -1.0598907    1.6826802    0.8015641 
C     0.0690280    1.1388134    1.3107083 
C    -0.2316893    1.3678231   -1.3761145 
C     0.9065017    0.8190392   -0.8693549 
C     1.0498091    0.7033926    0.4800702 
O    -2.0639945    2.1284491    1.6553070 
H    -2.7570336    1.4037790    1.8080121 
H     1.9498798    0.2594654    0.9008085 
H    -0.3585116    1.4682319   -2.4513985 
H    -2.1176452    2.2523259   -0.9254367 
H     0.1819738    1.0557817    2.3866862 
C     1.9907488    0.3197544   -1.7977390 
C     1.7490099   -1.1377696   -2.2371444 
H     2.9867458    0.3807480   -1.2989499 
H     2.0625968    0.9883221   -2.6858124 
C     2.6500886   -1.4859879   -3.4237044 
O     3.8800431   -2.0964967   -3.2161789 
O     2.2793432   -1.1551072   -4.7280357 
H     1.3856849   -0.6916619   -4.7739428 
N     1.9782483   -2.0210960   -1.0775819 
H     0.7032665   -1.2605831   -2.6018039 
H     1.1198028   -2.0409241   -0.4795650 
H     2.1414768   -3.0067848   -1.3987516 
