24
Energy =
C    -0.1820822    1.0351972    1.2497703 
C     0.3282811    2.2591918    0.9879818 
C     1.2692054    2.4013209    0.0176901 
C     0.2389005   -0.0502221    0.5508070 
C     1.1844459    0.0852724   -0.4187284 
C     1.6981563    1.3186978   -0.6808094 
O    -0.1318425    3.3504727    1.7309703 
H     0.2683203    4.2410611    1.4565328 
H     2.4339400    1.4491552   -1.4708399 
H    -0.1885053   -1.0257930    0.7685671 
H    -0.9367884    0.9406387    2.0233589 
H     1.6726162    3.3821145   -0.2065979 
C     1.6469188   -1.1259436   -1.2005084 
C     0.6333336   -1.5685955   -2.2993962 
H     1.8021887   -1.9514487   -0.4700292 
H     2.6396665   -0.9404828   -1.6704874 
C     0.5150529   -0.5287935   -3.4520752 
O     0.1826077    0.7812804   -3.1107667 
O     0.7151614   -0.7927410   -4.8160320 
H     0.6095608   -1.7485487   -5.1178210 
N     0.9204672   -2.9748344   -2.6877240 
H    -0.3865568   -1.5668616   -1.8534573 
H     1.1083752   -3.0974964   -3.7026928 
H     1.7755560   -3.3659340   -2.2289857 
