27
Energy =
C    -0.7478898    1.2848512   -2.2374453 
C    -0.9955158    0.9001419   -0.9533469 
C     0.0179114    0.9510304   -0.0636612 
C     0.5006004    1.7073267   -2.6015824 
C     1.5091830    1.7484711   -1.6841284 
C     1.2391315    1.3626276   -0.4097976 
N    -0.0263830    0.5873902    1.3086347 
C     2.0436916    1.3033695    0.6646814 
C     1.3274632    0.8410023    1.7045233 
H    -0.8305414    0.2301486    1.8740169 
C     3.5164808    1.6433507    0.7261777 
C     4.4103777    0.3822503    0.6467078 
H     3.7130220    2.1766530    1.6847897 
H     3.7954059    2.3623049   -0.0743964 
C     5.8520419    0.7142525    0.9885093 
N     4.3177538   -0.2425807   -0.6843017 
H     4.0868046   -0.3523125    1.4212245 
H     3.3389872   -0.5680430   -0.8626067 
H     4.5682353    0.4550253   -1.4260344 
H    -1.5463198    1.2541567   -2.9747864 
H    -1.9793164    0.5596715   -0.6484999 
H     0.6904303    2.0114293   -3.6283721 
H     2.4988764    2.0814921   -1.9792974 
H     1.7171411    0.6707449    2.7061392 
O     6.4895230    1.7913195    0.3848382 
O     6.5513307   -0.0659346    1.8980052 
H     6.8979877   -0.8829654    1.4155009 
