27
Energy =
C    -0.9776286    3.5992845   -0.1263185 
C    -1.1456767    2.3125089   -0.5432262 
C    -0.0485642    1.5424738   -0.7006686 
C     0.2760108    4.0843762    0.1233713 
C     1.3698096    3.2857748   -0.0439517 
C     1.1792953    2.0073674   -0.4600499 
N    -0.0073810    0.1851971   -1.1180397 
C     2.0728584    1.0307481   -0.6973832 
C     1.4025130   -0.0703736   -1.0812192 
H    -0.7937959   -0.4503887   -1.3873949 
C     3.5767388    1.0976162   -0.5273976 
C     4.0090781    0.7115931    0.9066039 
H     3.9545116    2.1129920   -0.7793193 
H     4.0458593    0.4002743   -1.2558574 
C     3.5338693    1.7295582    1.9259472 
N     5.4724703    0.5429858    0.9576285 
H     3.5231028   -0.2464030    1.2080431 
H     5.7800443   -0.1703409    0.2565070 
H     5.9419640    1.4516661    0.7240228 
H    -1.8450460    4.2401224    0.0138670 
H    -2.1339430    1.9103498   -0.7407260 
H     0.4013330    5.1096641    0.4642222 
H     2.3632504    3.6708867    0.1642748 
H     1.8585531   -1.0294413   -1.3174205 
O     4.0764016    3.0115155    1.9527814 
O     2.4614389    1.4291083    2.7549758 
H     2.2858229    2.2134661    3.3699481 
