27
Energy =
C    -1.4226379    2.3113302   -0.5439570 
C    -1.2146377    0.9714233   -0.3994163 
C     0.0552774    0.5308590   -0.2786301 
C    -0.3627187    3.1758283   -0.5593230 
C     0.9117063    2.7050980   -0.4333705 
C     1.0940469    1.3672424   -0.2977370 
N     0.4865677   -0.8118357   -0.1044103 
C     2.2279770    0.6651693   -0.1527576 
C     1.9076693   -0.6343898   -0.0218191 
H    -0.0797774   -1.6897525   -0.0536064 
C     3.6373257    1.2185743   -0.0896134 
C     4.0318218    1.8432530    1.2838818 
H     3.7523883    1.9828005   -0.8884573 
H     4.3426035    0.4014374   -0.3675747 
C     5.3077681    1.2210912    1.8357293 
N     2.9212306    1.7747164    2.2537116 
H     4.2756888    2.9176820    1.1136339 
H     2.7846891    0.7765160    2.5493506 
H     3.1942053    2.2919969    3.1236767 
H    -2.4356837    2.6937452   -0.6411870 
H    -2.0441946    0.2728240   -0.3776174 
H    -0.5373892    4.2436878   -0.6662678 
H     1.7544488    3.3894090   -0.4299173 
H     2.6215387   -1.4381483    0.1494474 
O     5.3410474   -0.1241490    2.1780717 
O     6.4615849    1.9818930    1.9624225 
H     6.9001482    2.0717235    1.0579456 
