27
Energy =
C    -1.5466169    2.0245327    0.5289771 
C    -1.2024866    0.7521896    0.1811277 
C     0.0795441    0.5074756   -0.1620063 
C    -0.6062278    3.0172241    0.5286010 
C     0.6840251    2.7439030    0.1768249 
C     1.0031323    1.4704399   -0.1681763 
N     0.6439724   -0.7404805   -0.5375803 
C     2.1832118    0.9454414   -0.5383208 
C     2.0110611   -0.3697692   -0.7569638 
H     0.1844606   -1.6758974   -0.6288201 
C     3.5079843    1.6679557   -0.6501915 
C     4.1468954    1.9312902    0.7518643 
H     3.3547556    2.6213434   -1.2049894 
H     4.1770714    1.0816940   -1.3143425 
C     4.2090047    3.4197850    1.0470748 
N     5.4868635    1.3164118    0.8830095 
H     3.4848444    1.5241158    1.5538141 
H     5.4945893    0.6515925    1.6911808 
H     5.7900526    0.7786666    0.0408161 
H    -2.5719206    2.2486857    0.8139386 
H    -1.9349557   -0.0483466    0.1825189 
H    -0.8867044    4.0280986    0.8180763 
H     1.4330665    3.5309488    0.1878433 
H     2.7964272   -1.0635230   -1.0492563 
O     3.1876203    4.0217070    1.7742326 
O     5.1894231    4.2269854    0.4904839 
H     5.0480553    5.1696999    0.8254775 
