27
Energy =
C    -0.9545195    0.9982581    2.0681499 
C    -0.8770136   -0.0669459    1.2208182 
C     0.0772497   -0.0573197    0.2667108 
C    -0.0779527    2.0408592    1.9465312 
C     0.8803836    2.0260377    0.9759929 
C     0.9344788    0.9576133    0.1390869 
N     0.3389806   -1.0697543   -0.6951798 
C     1.7747478    0.6975304   -0.8747510 
C     1.4627721   -0.5050824   -1.3866689 
H    -0.1549913   -1.9775346   -0.8552099 
C     2.9360238    1.5477120   -1.3460578 
C     4.3208346    1.1493966   -0.7445528 
H     2.7326407    2.6173521   -1.1276319 
H     2.9561951    1.4893076   -2.4581105 
C     5.3734355    0.9714074   -1.8344887 
N     4.2228486   -0.0515086    0.1092627 
H     4.6814543    2.0011763   -0.1218458 
H     5.1817892   -0.3335899    0.4247061 
H     3.6993214    0.1924865    0.9828916 
H    -1.7138747    1.0164800    2.8458249 
H    -1.5597341   -0.9052738    1.3077723 
H    -0.1433929    2.8848662    2.6289225 
H     1.5797132    2.8514246    0.8880510 
H     2.0220724   -0.9996915   -2.1802469 
O     6.6193388    1.5763310   -1.6985281 
O     5.1155814    0.1929862   -2.9601673 
H     5.9409608    0.1733653   -3.5440043 
