27
Energy =
C    -1.2387958    2.7217413    0.2218435 
C    -1.2093996    1.3611935    0.3014374 
C    -0.0130337    0.7417206    0.2236055 
C    -0.0780376    3.4279472    0.0679437 
C     1.1187426    2.7779797   -0.0076438 
C     1.1240558    1.4215132    0.0727155 
N     0.2353271   -0.6528445    0.2873226 
C     2.1583061    0.5650436    0.0256914 
C     1.6631771   -0.6840692    0.1546726 
H    -0.4366621   -1.4454362    0.4037125 
C     3.6155189    0.9803268   -0.1276234 
C     4.6554248   -0.1537083   -0.2356234 
H     3.8852612    1.6128103    0.7459920 
H     3.6991107    1.6187539   -1.0358630 
C     4.4484838   -1.0139598   -1.4820626 
N     4.7018862   -0.8934935    1.0462062 
H     5.6425868    0.3359136   -0.4103013 
H     4.4545177   -1.9041064    0.9136305 
H     5.6831357   -0.8965321    1.4100993 
H    -2.1889577    3.2465615    0.2809093 
H    -2.1204455    0.7853600    0.4239675 
H    -0.1092473    4.5130129    0.0050602 
H     2.0394412    3.3410749   -0.1294941 
H     2.2410845   -1.6011607    0.1585135 
O     4.5832137   -0.4366369   -2.7388836 
O     4.1342191   -2.3664104   -1.3924779 
H     4.0444176   -2.7434726   -2.3281385 
