27
Energy =
C    -1.6129510    2.0781853    0.0876332 
C    -1.2904476    1.1751330   -0.8819480 
C     0.0087857    0.8489960   -1.0460447 
C    -0.6357240    2.6388619    0.8629022 
C     0.6725653    2.2883906    0.6778236 
C     0.9681270    1.3801574   -0.2854003 
N     0.5548844   -0.0583954   -1.9931423 
C     2.1552540    0.8685911   -0.6497522 
C     1.9502980    0.0165948   -1.6707812 
H     0.0694545   -0.6303438   -2.7220240 
C     3.5051511    1.1385829   -0.0167231 
C     4.1518980    2.4479228   -0.5277469 
H     4.1715270    0.2738744   -0.2434820 
H     3.4121533    1.1632960    1.0903334 
C     5.6711754    2.3580707   -0.4459605 
N     3.6348691    3.5888187    0.2478722 
H     3.9156910    2.5933163   -1.6091108 
H     4.2398474    4.4336083    0.0724039 
H     2.7040933    3.8413745   -0.1472918 
H    -2.6518165    2.3628986    0.2350243 
H    -2.0535206    0.7296014   -1.5108403 
H    -0.9076511    3.3787353    1.6152608 
H     1.4837913    2.7622535    1.2364330 
H     2.7285321   -0.5549067   -2.1727477 
O     6.4011318    2.1343013   -1.6057422 
O     6.3483965    2.4438025    0.7700381 
H     5.7068394    2.5925263    1.5350416 
