27
Energy =
C    -1.3246977    2.4850863    0.4983030 
C    -1.2378986    1.2245174   -0.0126401 
C    -0.0149579    0.7371819   -0.3096301 
C    -0.1934085    3.2257822    0.7002978 
C     1.0316831    2.7112762    0.3926375 
C     1.0953127    1.4529138   -0.1171431 
N     0.2897783   -0.5424327   -0.8451293 
C     2.1590525    0.7235775   -0.4974337 
C     1.7179241   -0.4687747   -0.9367221 
H    -0.3550175   -1.3254778   -1.1000191 
C     3.6168161    1.1330705   -0.4669412 
C     4.1708623    1.4164355   -1.8846244 
H     4.1963499    0.3044024    0.0005465 
H     3.7796503    2.0213129    0.1805557 
C     5.6878182    1.5088386   -1.8471057 
N     3.5312100    2.6111303   -2.4913908 
H     3.9664828    0.5387054   -2.5408838 
H     2.8373013    3.0612145   -1.8520676 
H     4.2390786    3.3561283   -2.7048103 
H    -2.2975135    2.9027149    0.7458394 
H    -2.1253419    0.6232960   -0.1790826 
H    -0.2702865    4.2308701    1.1082538 
H     1.9239050    3.3066040    0.5558662 
H     2.3512375   -1.2695875   -1.3128864 
O     6.3188586    2.6288676   -1.3168053 
O     6.4561607    0.4380427   -2.2824039 
H     7.4342536    0.6755417   -2.1745297 
