27
Energy =
C    -0.7693989    2.3962925    1.2579345 
C    -0.8481281    1.1131954    0.8035874 
C     0.2446987    0.5710174    0.2264777 
C     0.3921158    3.1055330    1.1224488 
C     1.4823404    2.5361506    0.5328054 
C     1.3816754    1.2557215    0.0916387 
N     0.3685026   -0.7335033   -0.3217795 
C     2.2922156    0.4824326   -0.5201554 
C     1.7225514   -0.7051456   -0.7935558 
H    -0.3324230   -1.5086365   -0.3592579 
C     3.7021696    0.8761454   -0.9070580 
C     3.7412441    1.6318658   -2.2548213 
H     4.3440461   -0.0314219   -0.9677346 
H     4.1323963    1.5158740   -0.1061104 
C     3.2566434    0.7482843   -3.4068747 
N     5.1025483    2.1598807   -2.5059168 
H     3.0131887    2.4786313   -2.2115018 
H     5.0831872    3.2081404   -2.4891114 
H     5.7986168    1.8658740   -1.7788732 
H    -1.6352898    2.8585618    1.7253336 
H    -1.7638332    0.5391490    0.8968098 
H     0.4454403    4.1300818    1.4828052 
H     2.4013135    3.1033936    0.4193064 
H     2.2027250   -1.5174997   -1.3355299 
O     1.9155533    0.7790870   -3.7679396 
O     4.0979742   -0.1622133   -4.0430981 
H     5.0536461    0.0018870   -3.7649777 
