27
Energy =
C    -0.4236133    1.8795358   -2.1996279 
C    -0.6400310    0.6824515   -1.5850503 
C     0.2040926    0.3063977   -0.6016784 
C     0.6279608    2.6673295   -1.8220161 
C     1.4682348    2.2650559   -0.8262225 
C     1.2320819    1.0699908   -0.2246324 
N     0.1659327   -0.9016521    0.1440181 
C     1.9067102    0.4466794    0.7562780 
C     1.3087235   -0.7338226    0.9941583 
H    -0.5141519   -1.6941797    0.0874379 
C     3.1636964    0.9264378    1.4548925 
C     4.4388024    0.3053170    0.8538830 
H     3.1025741    0.6597010    2.5322776 
H     3.2309559    2.0355208    1.4141150 
C     4.6161670    0.7019509   -0.6091981 
N     4.4047394   -1.1552078    1.0682184 
H     5.3225400    0.7401013    1.3770646 
H     5.1228990   -1.6160749    0.4554092 
H     4.6860747   -1.3622547    2.0549340 
H    -1.0857768    2.2062360   -2.9974033 
H    -1.4650214    0.0420448   -1.8778405 
H     0.8010274    3.6170247   -2.3227711 
H     2.3085536    2.8912091   -0.5419111 
H     1.6678559   -1.4774362    1.7025266 
O     4.8400347    2.0330567   -0.9345286 
O     4.5373537   -0.2363468   -1.6293509 
H     3.5668446   -0.3437117   -1.8860426 
