27
Energy =
C    -0.7180748    2.5153093    1.2381964 
C    -0.9439069    1.3526062    0.5636305 
C     0.0917770    0.7756474   -0.0811997 
C     0.5309020    3.0714099    1.2534282 
C     1.5616452    2.4691708    0.5938521 
C     1.3142354    1.3112275   -0.0715560 
N     0.0697443   -0.4306382   -0.8311141 
C     2.1421163    0.5295439   -0.7846913 
C     1.4386034   -0.5201501   -1.2456904 
H    -0.7317656   -1.0720076   -1.0302948 
C     3.6254955    0.7299884   -1.0132096 
C     4.4766734   -0.0752117   -0.0133622 
H     3.8932591    1.8071414   -0.9705666 
H     3.8746813    0.3935757   -2.0447259 
C     4.3593160    0.4589398    1.4106261 
N     5.8677740   -0.0947659   -0.5003837 
H     4.0978767   -1.1241306    0.0236117 
H     6.2666853    0.8737650   -0.4501279 
H     6.4498117   -0.6684522    0.1574604 
H    -1.5330265    2.9991787    1.7705318 
H    -1.9274344    0.8957626    0.5456494 
H     0.7049747    3.9953491    1.7995585 
H     2.5508523    2.9119293    0.6144608 
H     1.8489624   -1.3352894   -1.8372520 
O     3.3886379   -0.0482891    2.2620454 
O     5.1851204    1.4815809    1.8615859 
H     4.8234157    2.3644850    1.5376405 
