27
Energy =
C    -1.5891686    1.8091522   -0.9722633 
C    -1.2989279    0.5542290   -0.5260122 
C    -0.0178587    0.2665777   -0.2141883 
C    -0.5979938    2.7431421   -1.0941105 
C     0.6891447    2.4275616   -0.7713938 
C     0.9560332    1.1698903   -0.3314754 
N     0.4894253   -0.9653162    0.2712325 
C     2.1253232    0.6248724    0.0455104 
C     1.8826253   -0.6494527    0.4182846 
H    -0.0154405   -1.8576956    0.4768349 
C     3.4549951    1.3701487    0.0766189 
C     4.7215550    0.5539524    0.4340848 
H     3.3563492    2.1980533    0.8122173 
H     3.6121616    1.8421405   -0.9190226 
C     5.1418119   -0.4186598   -0.6822836 
N     4.5472289   -0.1130826    1.7352536 
H     5.5439694    1.2971136    0.5383723 
H     5.4367132   -0.6060701    1.9895423 
H     4.3930016    0.6120575    2.4757072 
H    -2.6125993    2.0676083   -1.2319175 
H    -2.0728606   -0.1985545   -0.4220907 
H    -0.8369145    3.7421382   -1.4505601 
H     1.4745231    3.1712263   -0.8680546 
H     2.6301888   -1.3583108    0.7668474 
O     4.2732239   -1.4120605   -1.1168367 
O     6.4012774   -0.3420578   -1.2812662 
H     6.9777818    0.3841331   -0.8862615 
