27
Energy =
C    -1.2165307    2.0579877   -1.0963175 
C    -1.0528947    0.8168779   -0.5556713 
C     0.1942755    0.4250254   -0.2203080 
C    -0.1360277    2.8745866   -1.2877565 
C     1.1145825    2.4554754   -0.9398907 
C     1.2526410    1.2156616   -0.4034725 
N     0.5804379   -0.8147840    0.3565334 
C     2.3561125    0.5790455    0.0187709 
C     1.9968141   -0.6311698    0.4811594 
H    -0.0118275   -1.6354865    0.6203214 
C     3.7662682    1.1230101    0.0248418 
C     3.9982394    2.1224513    1.1817862 
H     3.9593117    1.6231935   -0.9520076 
H     4.5021178    0.2902371    0.0907478 
C     5.3108811    2.8607255    0.9904719 
N     3.9491438    1.4331350    2.4846960 
H     3.2153281    2.9163947    1.1588831 
H     2.9872866    1.0530033    2.6485489 
H     4.6147173    0.6227649    2.4853319 
H    -2.2101090    2.3995791   -1.3759239 
H    -1.8991374    0.1572665   -0.3962431 
H    -0.2742184    3.8633002   -1.7194597 
H     1.9721850    3.1050157   -1.0929618 
H     2.6777208   -1.3681454    0.9010584 
O     5.3273853    4.0699592    0.3096864 
O     6.5112259    2.3014854    1.4063901 
H     6.6316686    2.5159173    2.3852614 
