27
Energy =
C    -0.8757703    2.0330050    1.2238615 
C    -0.9655626    0.8839889    0.4950958 
C     0.1261587    0.4689224   -0.1812128 
C     0.2977613    2.7345907    1.2626561 
C     1.3872850    2.2933656    0.5708211 
C     1.2725943    1.1495594   -0.1507849 
N     0.2487009   -0.6974562   -0.9834889 
C     2.1849049    0.5111701   -0.8998450 
C     1.6160810   -0.5983035   -1.4042608 
H    -0.4705935   -1.4207997   -1.2130914 
C     3.6244628    0.9300766   -1.1252839 
C     4.6102663    0.5282756    0.0250922 
H     3.6276420    2.0210338   -1.3280019 
H     3.9828210    0.4770769   -2.0763599 
C     3.9671717   -0.2953896    1.1574417 
N     5.3843295    1.6958969    0.5190312 
H     5.3605733   -0.1615884   -0.4211357 
H     5.1294895    2.5997994    0.0618367 
H     5.2425825    1.8479730    1.5477459 
H    -1.7373823    2.3873715    1.7838275 
H    -1.8854643    0.3105594    0.4611821 
H     0.3666140    3.6425348    1.8565903 
H     2.3246765    2.8392695    0.6167424 
H     2.1219109   -1.3316651   -2.0275194 
O     3.4316754    0.3465890    2.2690380 
O     3.8487695   -1.6837784    1.0688595 
H     4.2250695   -2.0465387    0.2067366 
