27
Energy =
C    -1.3608473    2.2417239   -0.3953074 
C    -1.1821928    0.9243202   -0.0933209 
C     0.0792427    0.4488700   -0.0269675 
C    -0.2806823    3.0483711   -0.6249278 
C     0.9843226    2.5432609   -0.5522618 
C     1.1384844    1.2297769   -0.2478685 
N     0.4801385   -0.8843136    0.2568441 
C     2.2578636    0.4974035   -0.1258616 
C     1.9059109   -0.7670588    0.1683660 
H    -0.1080844   -1.7226793    0.4700241 
C     3.6837875    0.9673462   -0.3238312 
C     4.2438022    0.9945936   -1.7923618 
H     4.3442983    0.3139227    0.2888555 
H     3.7792074    1.9698750    0.1513656 
C     4.7176219    2.3883331   -2.1838013 
N     3.3427762    0.4475326   -2.8349609 
H     5.1767317    0.3826836   -1.7866878 
H     3.8004109   -0.3618047   -3.3161610 
H     2.4115937    0.1154847   -2.5087886 
H    -2.3659922    2.6514544   -0.4579387 
H    -2.0280589    0.2695230    0.0869221 
H    -0.4292720    4.0971955   -0.8719466 
H     1.8393983    3.1839954   -0.7415497 
H     2.5995862   -1.5930037    0.3070826 
O     3.8214740    3.4467925   -2.2700425 
O     6.0720512    2.6409404   -2.3689132 
H     6.5143143    2.7433839   -1.4680529 
