27
Energy =
C    -1.3411803    2.2544968   -0.6712515 
C    -1.1911639    0.9838340   -0.1998578 
C     0.0604620    0.5080968   -0.0310084 
C    -0.2429295    3.0162255   -0.9618482 
C     1.0120459    2.5123527   -0.7827784 
C     1.1363923    1.2448251   -0.3109847 
N     0.4349199   -0.7769987    0.4450279 
C     2.2413150    0.5281332   -0.0506669 
C     1.8647480   -0.6801205    0.4033863 
H    -0.1706598   -1.5760651    0.7421974 
C     3.6735403    0.9867589   -0.2118202 
C     4.1047526    1.9443567    0.9264842 
H     3.7721363    1.4955127   -1.1980775 
H     4.3622657    0.1129191   -0.2465765 
C     5.3677764    2.6964702    0.5329081 
N     4.2261264    1.2283909    2.2210667 
H     3.3375417    2.7430371    1.0464919 
H     4.0244465    0.2063350    2.1305239 
H     5.2011883    1.2910598    2.6033699 
H    -2.3380657    2.6634220   -0.8159752 
H    -2.0513228    0.3665118    0.0359178 
H    -0.3706636    4.0291052   -1.3369115 
H     1.8836805    3.1186824   -1.0141247 
H     2.5427821   -1.4760309    0.7025231 
O     6.6221524    2.1132702    0.6748085 
O     5.2655003    3.9467308   -0.0615171 
H     6.1981786    4.2842847   -0.2647677 
