27
Energy =
C    -1.6369013    1.7341090   -1.0561229 
C    -1.1027477    0.4809121   -1.0998239 
C     0.1501285    0.3028624   -0.6356130 
C    -0.9092171    2.7787118   -0.5553353 
C     0.3673709    2.5895971   -0.1032838 
C     0.8679390    1.3136490   -0.1519447 
N     0.9091810   -0.8979631   -0.6413887 
C     2.0973376    0.8782489    0.1511569 
C     2.1652779   -0.4343849   -0.1268576 
H     0.6285887   -1.8593932   -0.9437701 
C     3.2495159    1.7426453    0.6026356 
C     3.7025127    2.7297331   -0.5044058 
H     4.1105958    1.1016506    0.8957212 
H     2.9372534    2.3027115    1.5122979 
C     4.7327823    3.6847869    0.0562677 
N     2.5691884    3.4908223   -1.0651116 
H     4.1865413    2.1442664   -1.3191478 
H     2.2288307    3.0151065   -1.9343582 
H     1.6994024    3.5584058   -0.2460049 
H    -2.6483939    1.9025124   -1.4196348 
H    -1.6629396   -0.3561859   -1.5042608 
H    -1.3532765    3.7701157   -0.5100445 
H     0.9362811    3.5926471    0.4288267 
H     3.0564401   -1.0514918   -0.0293905 
O     6.0497157    3.6456540   -0.3903910 
O     4.3843802    4.5879544    1.0578808 
H     5.1998731    5.1376768    1.2985237 
