27
Energy =
C    -1.2212651    2.3036746   -1.2469016 
C    -1.1416182    1.0692570   -0.6734704 
C     0.0657124    0.6353923   -0.2549985 
C    -0.0978829    3.0702725   -1.3915338 
C     1.1118009    2.6078678   -0.9629977 
C     1.1658153    1.3772849   -0.3911536 
N     0.3676407   -0.6142737    0.3484465 
C     2.2171390    0.7009517    0.0974753 
C     1.7846705   -0.4944922    0.5368014 
H    -0.2710964   -1.4046899    0.5954038 
C     3.6609421    1.1534846    0.1022569 
C     4.3658066    0.8348285   -1.2310790 
H     4.2164604    0.6628734    0.9349342 
H     3.7058572    2.2439719    0.3077466 
C     4.4917272   -0.6674879   -1.4593673 
N     5.6829670    1.4949235   -1.2271290 
H     3.7502279    1.2198725   -2.0787966 
H     6.2011398    1.2488680   -2.1040537 
H     5.5510345    2.5335520   -1.2553059 
H    -2.1813272    2.6777894   -1.5935485 
H    -2.0214284    0.4456521   -0.5565406 
H    -0.1693236    4.0522239   -1.8530216 
H     2.0029104    3.2159098   -1.0840551 
H     2.4235279   -1.2802250    0.9408232 
O     4.6922780   -1.5411971   -0.3964409 
O     4.4403604   -1.1789630   -2.7485634 
H     5.3309616   -1.0227964   -3.1962639 
