27
Energy =
C    -1.1707872    3.3335562    0.3980126 
C    -1.1908436    2.0808133    0.9339257 
C    -0.1243887    1.2797241    0.7288477 
C    -0.0905756    3.7558269   -0.3254110 
C     0.9756513    2.9261000   -0.5202643 
C     0.9346544    1.6813323    0.0219630 
N     0.0544193   -0.0456206    1.2062453 
C     1.8392423    0.6863297   -0.0160757 
C     1.3529669   -0.3528213    0.6856751 
H    -0.5920992   -0.6360849    1.7783580 
C     3.1999164    0.6963248   -0.6811035 
C     4.2995268    1.2239890    0.2610769 
H     3.1876024    1.2988875   -1.6164689 
H     3.4488179   -0.3405548   -0.9952667 
C     4.1930869    2.7303899    0.4325102 
N     5.6103649    0.8390808   -0.2899783 
H     4.1730106    0.7813282    1.2788617 
H     6.3657595    1.2642822    0.3006985 
H     5.7305829   -0.1968523   -0.1957686 
H    -2.0142907    4.0018190    0.5535807 
H    -2.0373526    1.7324445    1.5159923 
H    -0.0770521    4.7623217   -0.7389388 
H     1.8378636    3.2712322   -1.0832261 
H     1.8712219   -1.2951879    0.8491558 
O     4.1210847    3.2850238    1.7005315 
O     4.1678736    3.5711131   -0.6737817 
H     5.1248346    3.7467804   -0.9488867 
