27
Energy =
C    -1.4043400    2.7311295    0.4331464 
C    -1.4148449    1.5197814   -0.2012873 
C    -0.2314556    0.9808187   -0.5689917 
C    -0.2177954    3.3684763    0.6860307 
C     0.9574059    2.7968836    0.2926937 
C     0.9180834    1.6029901   -0.3356640 
N    -0.0020174   -0.2521783   -1.2373024 
C     1.9419987    0.8744997   -0.8039428 
C     1.4303400   -0.2380986   -1.3618241 
H    -0.6924311   -0.9711104   -1.5557967 
C     3.4020040    1.3074139   -0.8740526 
C     3.9882134    1.8457023    0.4646975 
H     3.4882450    2.1037602   -1.6468393 
H     4.0222274    0.4504829   -1.2156852 
C     3.1323842    2.9748121    1.0894985 
N     5.3785962    2.2843854    0.2583791 
H     3.9726354    1.0356139    1.2317674 
H     5.9250649    1.5537295   -0.2525987 
H     5.3769780    3.1577156   -0.3224624 
H    -2.3407407    3.1859924    0.7476926 
H    -2.3448644    0.9991262   -0.4046270 
H    -0.2030102    4.3212965    1.2117630 
H     1.9490420    3.1904981    0.4942174 
H     2.0077642   -0.9966949   -1.8858378 
O     2.8819823    3.8503720    0.4691849 
O     3.3017796    3.3023550    2.4546641 
H     4.0361487    3.9961859    2.5409706 
