27
Energy =
C    -1.2946323    2.7459136   -0.5820935 
C    -1.2532680    1.4253931   -0.9170349 
C    -0.0794517    0.7707972   -0.7955665 
C    -0.1681702    3.3788616   -0.1352135 
C     1.0069796    2.6957883   -0.0208325 
C     1.0261935    1.3801175   -0.3615342 
N     0.1734582   -0.5952021   -1.0904524 
C     2.0373142    0.4940594   -0.3433137 
C     1.5669918   -0.6914461   -0.7702890 
H    -0.4805219   -1.3296603   -1.4466602 
C     3.4756682    0.7435321    0.0607042 
C     4.4261956    0.7546330   -1.1621476 
H     3.7791816   -0.0694152    0.7606744 
H     3.5792521    1.6909164    0.6310098 
C     5.8845088    0.7117137   -0.7129756 
N     4.1689105    1.9200663   -2.0380550 
H     4.2786003   -0.1916565   -1.7362699 
H     3.9009863    1.5867261   -2.9946626 
H     3.3713892    2.5080828   -1.7021067 
H    -2.2276964    3.2971903   -0.6697303 
H    -2.1378715    0.9077554   -1.2723747 
H    -0.2097718    4.4323746    0.1318613 
H     1.8964250    3.2043749    0.3364985 
H     2.1576197   -1.6004784   -0.8625790 
O     6.5476337   -0.5095949   -0.6917897 
O     6.5502065    1.8455710   -0.2478840 
H     5.9709969    2.6661448   -0.3455933 
