27
Energy =
C    -0.2422421    3.9178293   -0.5797419 
C    -0.7955027    2.6899749   -0.3701770 
C     0.0305565    1.6363084   -0.2014411 
C     1.1165954    4.0639726   -0.6162629 
C     1.9311776    2.9840445   -0.4409840 
C     1.3584410    1.7695621   -0.2337184 
N    -0.3414191    0.2840672    0.0249504 
C     1.9253137    0.5673186   -0.0362978 
C     0.9452337   -0.3412021    0.1158717 
H    -1.2956195   -0.1360456    0.1069632 
C     3.4050063    0.2421020   -0.0055589 
C     3.9811356   -0.0977982   -1.3945800 
H     3.5704764   -0.6283480    0.6667255 
H     3.9702318    1.0898123    0.4403348 
C     3.9641792    1.1068183   -2.3284508 
N     3.3000540   -1.2869008   -1.9407394 
H     5.0583396   -0.3439476   -1.2505165 
H     2.3477356   -1.0182975   -2.2898343 
H     3.8321058   -1.6322987   -2.7737458 
H    -0.8841140    4.7830449   -0.7245459 
H    -1.8714971    2.5563753   -0.3425008 
H     1.5511571    5.0448327   -0.7944994 
H     3.0096098    3.1052587   -0.4834097 
H     1.1037973   -1.4066495    0.2678808 
O     4.8993645    2.1171134   -2.1532971 
O     2.9855263    1.2609436   -3.3012134 
H     3.2478664    0.7234453   -4.1134028 
