27
Energy =
C    -1.5103092    2.3200682    0.0341651 
C    -1.2228377    0.9878197    0.0238735 
C     0.0679746    0.6123567   -0.0954577 
C    -0.5060917    3.2419838   -0.0698624 
C     0.7913886    2.8359645   -0.1942636 
C     1.0546480    1.5042498   -0.2075211 
N     0.5748668   -0.7138476   -0.1201563 
C     2.2255957    0.8525504   -0.3213446 
C     1.9792529   -0.4684806   -0.2628619 
H     0.0591683   -1.6218355   -0.0604992 
C     3.6048759    1.4514850   -0.5071436 
C     4.3047706    1.7636805    0.8330670 
H     3.5568263    2.3641869   -1.1395900 
H     4.2206060    0.7265393   -1.0839762 
C     3.7726372    3.0608709    1.4345790 
N     5.7567985    1.8297578    0.5868248 
H     4.0870979    0.9671803    1.5852166 
H     6.2236815    2.1357108    1.4695892 
H     6.1183458    0.8592728    0.3960516 
H    -2.5410757    2.6497969    0.1400485 
H    -2.0063952    0.2431220    0.1157568 
H    -0.7413989    4.3035781   -0.0341784 
H     1.5947503    3.5665981   -0.2328171 
H     2.7345117   -1.2488084   -0.3243468 
O     2.5663258    3.0655419    2.1045994 
O     4.4080996    4.2738121    1.2422023 
H     5.3684809    4.0356327    1.0369469 
