27
Energy =
C    -1.0917206    2.4004834    0.8939826 
C    -1.0815827    1.0938351    0.5076499 
C     0.0660278    0.5800039    0.0179715 
C     0.0383816    3.1608980    0.7802215 
C     1.1866887    2.6195708    0.2813773 
C     1.1769298    1.3123635   -0.0932513 
N     0.2813952   -0.7458871   -0.4409216 
C     2.1579763    0.5467146   -0.6052852 
C     1.6585176   -0.6823871   -0.8293682 
H    -0.3881346   -1.5476288   -0.4906705 
C     3.5878818    0.9537658   -0.9033394 
C     4.6129009    0.1610019   -0.0564269 
H     3.7424557    2.0414546   -0.7474539 
H     3.7790672    0.7642538   -1.9824681 
C     4.3786914    0.2919751    1.4454843 
N     5.9775699    0.5770374   -0.4223567 
H     4.5087983   -0.9276050   -0.2732931 
H     6.1217011    0.4966407   -1.4561468 
H     6.1336593    1.5773842   -0.1470214 
H    -2.0025702    2.8391165    1.2939611 
H    -1.9697314    0.4765701    0.5901811 
H     0.0211787    4.2033521    1.0897160 
H     2.0748422    3.2348184    0.1920058 
H     2.2168212   -1.5198455   -1.2413452 
O     4.0969145   -0.8370526    2.2032246 
O     4.4295116    1.5315282    2.0747234 
H     3.5933590    2.0464756    1.8536160 
