27
Energy =
C    -1.3576135    2.5413886    0.3044612 
C    -1.2017000    1.1909635    0.4120876 
C     0.0275589    0.6713707    0.2114005 
C    -0.2870140    3.3371343    0.0016722 
C     0.9457938    2.7877405   -0.1957905 
C     1.0760129    1.4407010   -0.0844271 
N     0.4054770   -0.6965895    0.2824711 
C     2.1637561    0.6678010   -0.2246467 
C     1.8066133   -0.6104609   -0.0096443 
H    -0.1822043   -1.5357089    0.4932397 
C     3.5688483    1.1351968   -0.5275010 
C     4.2602958    1.7283420    0.7178490 
H     3.5210808    1.8919615   -1.3437802 
H     4.1778792    0.2898731   -0.9184845 
C     5.4929129    2.5276667    0.2977395 
N     4.5832547    0.6386718    1.6561836 
H     3.5883196    2.4665663    1.2165045 
H     5.0528610    1.0622963    2.4874022 
H     3.6870663    0.2253163    2.0254291 
H    -2.3367295    2.9871215    0.4612890 
H    -2.0396610    0.5459605    0.6535849 
H    -0.4185276    4.4136189   -0.0811593 
H     1.7964991    3.4209518   -0.4344393 
H     2.4838392   -1.4616256   -0.0362322 
O     5.3206230    3.6814347   -0.4478582 
O     6.7871096    2.1251873    0.5929032 
H     6.7055445    1.3538485    1.2385178 
