27
Energy =
C    -1.4879237    2.2249511    0.3100779 
C    -1.1953569    0.9005103    0.4496409 
C     0.0724912    0.4981602    0.2218212 
C    -0.5110826    3.1127429   -0.0482835 
C     0.7638153    2.6817405   -0.2708077 
C     1.0304288    1.3574082   -0.1302307 
N     0.5868257   -0.8219499    0.3272196 
C     2.1857474    0.6914066   -0.2813469 
C     1.9654170   -0.6055089   -0.0048877 
H     0.0936760   -1.7096757    0.5770480 
C     3.5328531    1.2827233   -0.6313214 
C     4.2470788    1.8192286    0.6253325 
H     3.3933789    2.0985573   -1.3756361 
H     4.1573682    0.5081576   -1.1278169 
C     5.4235592    2.7273794    0.2721757 
N     4.6372495    0.6876819    1.4870869 
H     3.5347973    2.4717680    1.1859120 
H     5.4026832    0.1333888    1.0362649 
H     5.0282480    1.0593650    2.3865684 
H    -2.5011766    2.5767539    0.4880410 
H    -1.9566938    0.1839935    0.7388670 
H    -0.7509895    4.1683986   -0.1535874 
H     1.5395800    3.3896213   -0.5487492 
H     2.7300935   -1.3786555   -0.0013157 
O     5.4174682    4.0406726    0.7223869 
O     6.5033916    2.2853613   -0.4919794 
H     6.3936950    1.3270362   -0.7832137 
