27
Energy =
C    -1.3077171    2.5471020   -0.8581860 
C    -1.2020570    1.2245379   -0.5445306 
C     0.0269301    0.7191362   -0.3097246 
C    -0.1893616    3.3313909   -0.9248963 
C     1.0419960    2.7979059   -0.6801692 
C     1.1235461    1.4768640   -0.3756894 
N     0.3512638   -0.6169741    0.0481324 
C     2.1961825    0.7236687   -0.0871050 
C     1.7763824   -0.5242880    0.1858236 
H    -0.2758239   -1.4449199    0.1731563 
C     3.6379616    1.1810625   -0.0003040 
C     4.0846736    1.6434526    1.4208873 
H     3.8134603    2.0013372   -0.7281916 
H     4.2739204    0.3400662   -0.3613353 
C     5.3550343    0.9234970    1.8602503 
N     3.0022709    1.4773611    2.4108249 
H     4.3552907    2.7236823    1.3665625 
H     3.3848799    1.6145387    3.3780918 
H     2.2927079    2.2344273    2.2732220 
H    -2.2860463    2.9802379   -1.0519058 
H    -2.0797952    0.5900485   -0.4805340 
H    -0.2829836    4.3864625   -1.1712322 
H     1.9271989    3.4245968   -0.7251008 
H     2.4223799   -1.3389998    0.5095760 
O     5.4298157   -0.4636471    1.8357134 
O     6.4585712    1.6513395    2.2864634 
H     6.9541596    2.0031174    1.4808981 
