27
Energy =
C    -1.2536045    2.6161211   -1.5111419 
C    -1.3331141    1.4250446   -0.8519489 
C    -0.1999855    0.9012663   -0.3388890 
C    -0.0495561    3.2514170   -1.6438676 
C     1.0816085    2.7007518   -1.1169108 
C     0.9773419    1.5157450   -0.4625309 
N    -0.0617439   -0.3251328    0.3652993 
C     1.9265905    0.7716279    0.1267904 
C     1.3479074   -0.3339696    0.6274756 
H    -0.7916670   -1.0299806    0.6192880 
C     3.4080654    1.0803953    0.1989986 
C     4.2610292    0.6256414   -1.0327684 
H     3.8209273    0.6033665    1.1159189 
H     3.5241238    2.1732472    0.3821936 
C     5.0995716    1.7812803   -1.5834680 
N     3.4541130    0.0062182   -2.1010120 
H     4.9848685   -0.1434836   -0.6828650 
H     2.9243310   -0.8188714   -1.7346381 
H     2.7689005    0.6978594   -2.4905864 
H    -2.1504710    3.0608618   -1.9354458 
H    -2.2790901    0.9058386   -0.7413591 
H     0.0084016    4.1990208   -2.1749232 
H     2.0393587    3.2021199   -1.2298602 
H     1.8714218   -1.1310149    1.1502102 
O     4.4717431    2.8052727   -2.2846624 
O     6.4700761    1.8844106   -1.3363472 
H     6.8327219    1.1057507   -0.8084893 
