27
Energy =
C    -1.1201991    2.6627758   -0.2196314 
C    -1.1017624    1.3004400   -0.2666974 
C     0.0932204    0.6750717   -0.2231579 
C     0.0501124    3.3652676   -0.1359551 
C     1.2459388    2.7101189   -0.0972560 
C     1.2396464    1.3524120   -0.1391159 
N     0.3318990   -0.7237223   -0.2802716 
C     2.2645232    0.4847404   -0.1259362 
C     1.7651880   -0.7606156   -0.2242080 
H    -0.3537077   -1.5117495   -0.3356672 
C     3.7399776    0.8224030   -0.0865841 
C     4.3319745    0.9622982   -1.5072071 
H     4.2894277    0.0340451    0.4758575 
H     3.8914250    1.7657312    0.4808088 
C     4.3685911   -0.3784210   -2.2403219 
N     5.6613251    1.6003345   -1.4326849 
H     3.6588623    1.6012265   -2.1295682 
H     5.5445594    2.6275134   -1.2588895 
H     6.2174848    1.2237481   -0.6287129 
H    -2.0690879    3.1922424   -0.2544791 
H    -2.0200452    0.7279513   -0.3419389 
H     0.0273771    4.4519826   -0.1048381 
H     2.1730032    3.2718073   -0.0406563 
H     2.3649486   -1.6663839   -0.3142585 
O     3.3084330   -0.7178520   -3.0703131 
O     5.3610969   -1.3298400   -2.0116889 
H     6.1232433   -0.9360457   -1.4842244 
