27
Energy =
C    -0.6200878    3.0901148    1.2022645 
C    -0.7674544    1.7369310    1.2764845 
C     0.1521888    0.9580492    0.6694319 
C     0.4372121    3.6323318    0.5255174 
C     1.3549007    2.8256904   -0.0807822 
C     1.1903483    1.4807653    0.0101239 
N     0.1737413   -0.4635538    0.6256559 
C     1.9286461    0.4838567   -0.4948108 
C     1.3778907   -0.7036156   -0.1316279 
H    -0.5121182   -1.1605790    0.9931433 
C     3.1713194    0.5480561   -1.3610828 
C     4.3170979   -0.3255816   -0.7851255 
H     3.5284014    1.5930986   -1.4678213 
H     2.9050804    0.1832837   -2.3766352 
C     3.8441325   -1.7162375   -0.3097424 
N     4.9682740    0.4431548    0.2939728 
H     5.0449734   -0.5117280   -1.6084098 
H     5.1992476   -0.1709181    1.1133030 
H     5.8709876    0.8438028   -0.0518393 
H    -1.3461413    3.7400080    1.6838543 
H    -1.6003856    1.2906247    1.8090044 
H     0.5476767    4.7125349    0.4717267 
H     2.1924670    3.2620263   -0.6145955 
H     1.7388702   -1.7947246   -0.6983680 
O     2.5189864   -1.8832118    0.1459786 
O     4.7193780   -2.7918544   -0.2111764 
H     5.6600981   -2.5414034   -0.4755828 
