27
Energy =
C    -1.4275331    2.8803710    0.2420653 
C    -1.3898824    1.5178781    0.2731664 
C    -0.2083370    0.9054941    0.0486418 
C    -0.2887947    3.5955878   -0.0074135 
C     0.8936254    2.9531365   -0.2296856 
C     0.9061745    1.5960151   -0.1982780 
N     0.0481425   -0.4919183    0.0502994 
C     1.9247913    0.7397481   -0.3747139 
C     1.4562953   -0.5115373   -0.2201049 
H    -0.6138202   -1.2886135    0.1937365 
C     3.3749461    1.0924797   -0.6433097 
C     4.2385927    1.3205841    0.6311291 
H     3.4136901    1.9862372   -1.3041636 
H     3.8318865    0.2777624   -1.2469450 
C     3.4950732    1.1258304    1.9530865 
N     4.8863215    2.6417336    0.5379413 
H     5.0371877    0.5434259    0.6336283 
H     4.1603429    3.3868716    0.6734627 
H     5.5581754    2.7539966    1.3344144 
H    -2.3646378    3.3999942    0.4251569 
H    -2.2816889    0.9356756    0.4790278 
H    -0.3232137    4.6820368   -0.0194772 
H     1.7986277    3.5233000   -0.4133969 
H     2.0629681   -1.4132792   -0.2558154 
O     2.7345047    2.1522409    2.4980548 
O     3.5384885   -0.1008252    2.6022360 
H     4.4102305   -0.1763675    3.1049235 
