27
Energy =
C    -0.8016668    2.5132535    1.1684656 
C    -0.8116673    1.1711105    0.9283474 
C     0.2970797    0.6068700    0.4053287 
C     0.3091741    3.2569691    0.8793962 
C     1.4168425    2.6633828    0.3490081 
C     1.3845838    1.3250754    0.1210728 
N     0.4893219   -0.7600557    0.0708697 
C     2.3258478    0.5168000   -0.3912366 
C     1.8275230   -0.7313843   -0.4447228 
H    -0.1641293   -1.5696579    0.1769344 
C     3.6979065    0.9245125   -0.8845170 
C     3.6449049    1.5050434   -2.3193505 
H     4.3867209    0.0486941   -0.8623176 
H     4.1203524    1.6785549   -0.1856934 
C     3.1744818    0.4721433   -3.3514278 
N     4.9619047    2.0529142   -2.7046630 
H     2.8912967    2.3265037   -2.3198435 
H     4.8630419    3.0598215   -2.9749263 
H     5.6631656    2.0158288   -1.9274939 
H    -1.6814267    2.9939398    1.5890290 
H    -1.6856918    0.5672001    1.1475104 
H     0.3086701    4.3272165    1.0716084 
H     2.2968037    3.2555070    0.1162551 
H     2.3512548   -1.5962127   -0.8498105 
O     3.4626592   -0.8787126   -3.1737107 
O     2.4744075    0.8580272   -4.4959701 
H     2.4159470    1.8620339   -4.5734157 
