27
Energy =
C    -1.5012478    1.1693089    1.3102485 
C    -0.8119698    0.0368910    1.6238764 
C     0.5030920   -0.0154921    1.3262391 
C    -0.8645745    2.2180499    0.7084236 
C     0.4655938    2.1423669    0.4169026 
C     1.1362266    1.0036767    0.7391388 
N     1.3906199   -1.0955803    1.5721394 
C     2.4302837    0.6767191    0.5634755 
C     2.6169736   -0.5658707    1.0464079 
H     1.1977000   -2.0151136    2.0322670 
C     3.5298221    1.5466072   -0.0288317 
C     4.2358861    0.9762983   -1.2938184 
H     4.2788682    1.7411351    0.7701579 
H     3.1291661    2.5483910   -0.2822818 
C     3.5674022   -0.2530005   -1.8977776 
N     5.6604101    0.7491194   -0.9883196 
H     4.1698390    1.7514733   -2.0925253 
H     5.7502522   -0.0905752   -0.3680804 
H     6.1573544    0.4917860   -1.8749181 
H    -2.5626056    1.2363798    1.5349252 
H    -1.3033423   -0.8060531    2.0975828 
H    -1.4232399    3.1156408    0.4548212 
H     0.9544699    2.9783271   -0.0704471 
H     3.5545087   -1.1181715    0.9773098 
O     3.9360606   -1.5279641   -1.4869667 
O     2.5287662   -0.1102240   -2.8036744 
H     2.9049899    0.1074105   -3.7147921 
