27
Energy =
C    -1.2482603    1.9663703    0.6613812 
C    -1.1414246    0.7714413    0.0149742 
C     0.0658795    0.4106475   -0.4676732 
C    -0.1516262    2.7685828    0.8114171 
C     1.0587948    2.3813618    0.3161662 
C     1.1430573    1.1860803   -0.3260681 
N     0.3875300   -0.7867366   -1.1583582 
C     2.2016439    0.5786533   -0.8919850 
C     1.7903821   -0.6005140   -1.3931286 
H    -0.2332028   -1.5829331   -1.4323055 
C     3.6291596    1.0920831   -0.9487718 
C     4.5688148    0.4373649    0.0979219 
H     3.6447174    2.1929588   -0.8083359 
H     4.0298287    0.9208347   -1.9725252 
C     4.9709063   -0.9803052   -0.2846017 
N     3.9948109    0.5122309    1.4547926 
H     5.5338176    0.9952822    0.1010650 
H     3.6190578    1.4696254    1.6440223 
H     3.1989734   -0.1670160    1.5432323 
H    -2.2091532    2.2810595    1.0608711 
H    -2.0006335    0.1211129   -0.1097651 
H    -0.2449589    3.7196947    1.3302386 
H     1.9239170    3.0230249    0.4432293 
H     2.4372056   -1.3350422   -1.8720866 
O     4.1110204   -2.0501544   -0.0773925 
O     6.1623980   -1.2043094   -0.9608392 
H     6.0587185   -0.9198453   -1.9221864 
