27
Energy =
C    -1.4368933    1.9061204   -0.9612980 
C    -1.1102075    0.6035284   -1.1963556 
C     0.1571092    0.2081896   -0.9533702 
C    -0.4938351    2.7797014   -0.4946943 
C     0.7809337    2.3558529   -0.2581011 
C     1.0824139    1.0530787   -0.4953158 
N     0.7029122   -1.0897251   -1.1425834 
C     2.2452230    0.3963430   -0.3523895 
C     2.0610122   -0.8792838   -0.7353061 
H     0.2375141   -1.9603491   -1.4882288 
C     3.5656328    0.9691226    0.1115257 
C     4.4399314    1.4438162   -1.0669834 
H     4.1095977    0.1894951    0.6911059 
H     3.4033484    1.8149772    0.8148078 
C     5.8588346    1.7664704   -0.6144258 
N     3.8017455    2.6088700   -1.7071569 
H     4.5482578    0.6143873   -1.8045924 
H     4.4853683    3.0465989   -2.3735639 
H     3.0107276    2.2735512   -2.3046995 
H    -2.4505138    2.2518831   -1.1484037 
H    -1.8449641   -0.1013442   -1.5705042 
H    -0.7602926    3.8183742   -0.3137302 
H     1.5311089    3.0538257    0.1024793 
H     2.8311881   -1.6477831   -0.7433003 
O     6.1846445    1.8786434    0.7336445 
O     6.8531757    1.9568924   -1.5639980 
H     7.7183473    2.1685342   -1.0827217 
