27
Energy =
C    -1.3259760    2.2203911    0.3752474 
C    -1.1564408    0.9202543    0.0036828 
C     0.0959187    0.4844899   -0.2474606 
C    -0.2453946    3.0495283    0.4918246 
C     1.0112878    2.5840874    0.2360907 
C     1.1572973    1.2877738   -0.1418525 
N     0.4839615   -0.8253029   -0.6349783 
C     2.2672658    0.5920255   -0.4460870 
C     1.9043429   -0.6703531   -0.7385068 
H    -0.1085983   -1.6715409   -0.7990353 
C     3.6970272    1.0980873   -0.4793363 
C     4.1220341    1.6956188   -1.8458854 
H     4.3826769    0.2591091   -0.2285341 
H     3.8461701    1.8551733    0.3223422 
C     3.3958816    3.0069546   -2.1691878 
N     4.0396669    0.6785277   -2.9147790 
H     5.1881994    2.0076119   -1.7510842 
H     4.6722527   -0.1239100   -2.6822455 
H     3.0686865    0.2927930   -2.9895937 
H    -2.3244756    2.5990878    0.5797494 
H    -2.0027116    0.2481191   -0.0904713 
H    -0.3877581    4.0867346    0.7877645 
H     1.8650177    3.2454874    0.3379683 
H     2.5888063   -1.4653461   -1.0255287 
O     3.5209572    4.0684911   -1.2813275 
O     2.6263718    3.1983227   -3.3150805 
H     2.7359998    2.4311243   -3.9575917 
