27
Energy =
C    -1.0281025    2.8762541   -1.5874418 
C    -1.2428237    1.7276344   -0.8853898 
C    -0.1742142    1.0832717   -0.3710376 
C     0.2426593    3.3514375   -1.7584165 
C     1.3059724    2.6814134   -1.2281983 
C     1.0692630    1.5399612   -0.5336217 
N    -0.1797576   -0.1221135    0.3806387 
C     1.9275103    0.7046224    0.0746274 
C     1.2208413   -0.2982098    0.6270733 
H    -0.9879746   -0.7186217    0.6721981 
C     3.4381900    0.8100123    0.1171171 
C     4.2450716    0.1944117   -1.0825901 
H     3.7836390    0.3197319    1.0545050 
H     3.7069114    1.8808320    0.2593661 
C     5.0679582    1.2461716   -1.8119440 
N     3.4525738   -0.5998643   -2.0512832 
H     5.0116926   -0.4779010   -0.6285921 
H     3.8093979   -1.5836286   -2.0797974 
H     2.4303622   -0.6582862   -1.8625160 
H    -1.8702236    3.4150220   -2.0146586 
H    -2.2440206    1.3356004   -0.7420063 
H     0.4082053    4.2664126   -2.3223843 
H     2.3125114    3.0599249   -1.3662169 
H     1.6474976   -1.1379884    1.1707041 
O     6.4542273    1.1335246   -1.8625731 
O     4.4623224    2.3480869   -2.4055368 
H     5.1747997    2.8956224   -2.8690791 
