27
Energy =
C    -1.2745398    2.9324839    0.6656462 
C    -1.1253634    1.6467475    1.0923427 
C     0.0082765    0.9914741    0.7658411 
C    -0.2920100    3.5316120   -0.0724165 
C     0.8449990    2.8471972   -0.3911190 
C     0.9727179    1.5667671    0.0441239 
N     0.3611399   -0.3377128    1.1201431 
C     1.9787647    0.6900018   -0.1219668 
C     1.6533733   -0.4504810    0.5118359 
H    -0.1792810   -1.0412379    1.6741612 
C     3.2916797    0.9163047   -0.8418228 
C     4.3834233    1.4471697    0.1162601 
H     3.1585205    1.6167091   -1.6963955 
H     3.6196311   -0.0497590   -1.2845529 
C     4.0928342    2.8846311    0.5509344 
N     5.7011246    1.3513282   -0.5331847 
H     4.4015626    0.8127062    1.0306683 
H     5.8914614    0.3674704   -0.8355939 
H     5.7207403    1.9621709   -1.3867818 
H    -2.1756103    3.4855418    0.9196970 
H    -1.8924854    1.1586583    1.6839653 
H    -0.4135067    4.5625900   -0.3991210 
H     1.6287522    3.3312711   -0.9669370 
H     2.2832822   -1.3355119    0.5683021 
O     3.9464876    3.8708464   -0.4192311 
O     3.9064392    3.2355272    1.8871566 
H     4.0841333    2.4666262    2.5135280 
