27
Energy =
C    -1.2851962    2.9369175    0.8674882 
C    -1.1178850    1.6435533    1.2636873 
C    -0.0060330    0.9908304    0.8649689 
C    -0.3419512    3.5460427    0.0874877 
C     0.7739872    2.8643256   -0.3033478 
C     0.9196312    1.5761656    0.1021038 
N     0.3591898   -0.3468213    1.1727026 
C     1.9098328    0.6989659   -0.1372172 
C     1.6149470   -0.4528838    0.4908038 
H    -0.1540668   -1.0599389    1.7399664 
C     3.1769000    0.9355128   -0.9308706 
C     4.3295018    1.4377227   -0.0416064 
H     2.9987390    1.6530617   -1.7614678 
H     3.4855795   -0.0197496   -1.4109337 
C     4.0863956    2.8493970    0.4627808 
N     5.5828199    1.3331648   -0.8087831 
H     4.3998694    0.7982515    0.8709913 
H     5.5698909    2.0472563   -1.5780704 
H     6.3811440    1.6049972   -0.1859233 
H    -2.1699566    3.4873180    1.1779272 
H    -1.8541673    1.1470999    1.8866087 
H    -0.4790138    4.5816010   -0.2169750 
H     1.5280665    3.3542078   -0.9134107 
H     2.2420680   -1.3418494    0.4940306 
O     3.8732197    3.8952103   -0.4283222 
O     4.0691229    3.1095876    1.8228001 
H     3.9062674    4.0994881    1.9554495 
