27
Energy =
C    -0.8405414    2.2313710    1.2521854 
C    -0.9637972    1.0560335    0.5728986 
C     0.1165343    0.5778920   -0.0795038 
C     0.3533819    2.8976483    1.2651218 
C     1.4310826    2.3940385    0.5979094 
C     1.2852908    1.2220207   -0.0732650 
N     0.2000912   -0.6220487   -0.8354571 
C     2.1766380    0.5219841   -0.7946586 
C     1.5691600   -0.5852423   -1.2572228 
H    -0.5416743   -1.3315048   -1.0346529 
C     3.6311309    0.8647417   -1.0377114 
C     4.5761133    0.1306015   -0.0696582 
H     3.8016308    1.9606333   -0.9707071 
H     3.8913320    0.5829578   -2.0815109 
C     4.3696308    0.5804397    1.3757265 
N     5.9560100    0.3555757   -0.5384133 
H     4.3491855   -0.9618990   -0.0831094 
H     6.6350016    0.1356729    0.2322767 
H     6.1688059   -0.3096134   -1.3181089 
H    -1.6930934    2.6369989    1.7908432 
H    -1.9019978    0.5121751    0.5573495 
H     0.4463981    3.8302091    1.8162654 
H     2.3781216    2.9220070    0.6199603 
H     2.0473276   -1.3559622   -1.8569080 
O     3.3534844    0.0206762    2.1371450 
O     5.1659870    1.5674325    1.9421459 
H     4.7806863    2.4679879    1.7060241 
