27
Energy =
C    -1.2144316    2.5623017   -0.4284922 
C    -1.1678581    1.2013696   -0.4934684 
C     0.0365166    0.5978346   -0.4106914 
C    -0.0624400    3.2849672   -0.2846417 
C     1.1428259    2.6513969   -0.2035645 
C     1.1653895    1.2951732   -0.2689295 
N     0.3024153   -0.7968933   -0.4620019 
C     2.2034008    0.4444885   -0.2138565 
C     1.7300415   -0.8086897   -0.3340287 
H    -0.3650552   -1.5955222   -0.5648490 
C     3.6692960    0.7967275   -0.0905269 
C     4.3292283    0.9602850   -1.4733886 
H     4.1856100   -0.0080112    0.4805281 
H     3.7988443    1.7270380    0.5049661 
C     5.8430788    1.0146292   -1.3517829 
N     3.7813482    2.1579313   -2.1353243 
H     4.1063144    0.0557819   -2.0877290 
H     4.1499903    3.0179489   -1.6598541 
H     4.1256174    2.1957743   -3.1237878 
H    -2.1710101    3.0747358   -0.4937812 
H    -2.0717182    0.6131535   -0.6100439 
H    -0.1063612    4.3703911   -0.2373025 
H     2.0561385    3.2274823   -0.0955052 
H     2.3401227   -1.7093669   -0.3429473 
O     6.4486088    1.9144665   -0.4852565 
O     6.6357071    0.1791601   -2.1254263 
H     6.6969917    0.5565398   -3.0597622 
