27
Energy =
C    -1.0007292    2.6158498    0.8094620 
C    -1.0275001    1.2736793    0.5706903 
C     0.1184164    0.6681658    0.1946105 
C     0.1635639    3.3187461    0.6643098 
C     1.3082810    2.6840420    0.2804073 
C     1.2581890    1.3463587    0.0518653 
N     0.3025973   -0.7058224   -0.1146831 
C     2.2275204    0.5032426   -0.3366692 
C     1.6955772   -0.7262240   -0.4565478 
H    -0.3871115   -1.4916522   -0.0935878 
C     3.6636403    0.8601789   -0.6555377 
C     3.8127339    1.4081677   -2.0958150 
H     4.3136567   -0.0354850   -0.5273510 
H     4.0183742    1.6179014    0.0766710 
C     3.4260414    0.3658891   -3.1561570 
N     5.1755909    1.9538343   -2.3050318 
H     3.0941065    2.2503960   -2.2094813 
H     5.7900850    1.8304299   -1.4657566 
H     5.6700357    1.4565157   -3.0861125 
H    -1.9095562    3.1293283    1.1133152 
H    -1.9434027    0.7020367    0.6756732 
H     0.1763367    4.3895394    0.8535122 
H     2.2309111    3.2443801    0.1603858 
H     2.2347749   -1.6084888   -0.7992843 
O     3.7252488   -0.9770026   -2.9513362 
O     2.8389449    0.7412114   -4.3639270 
H     2.7591059    1.7437778   -4.4476568 
