27
Energy =
C    -0.8186379    1.8778047   -1.9193271 
C    -0.7100811    0.6867565   -1.2653224 
C     0.4237132    0.4353791   -0.5775654 
C     0.2019644    2.7863738   -1.8700327 
C     1.3381115    2.5084803   -1.1674290 
C     1.4255302    1.3159386   -0.5245771 
N     0.7319613   -0.7336485    0.1678468 
C     2.4202295    0.8067191    0.2212771 
C     2.0385981   -0.4072862    0.6592717 
H     0.1687650   -1.6040141    0.3070725 
C     3.7397043    1.4686557    0.5708671 
C     3.6296222    2.3920184    1.7990020 
H     4.1122775    2.0497968   -0.2992843 
H     4.5010017    0.6822973    0.7691426 
C     3.0640751    1.6462697    3.0184106 
N     2.8501496    3.5859641    1.4219407 
H     4.6575421    2.7124926    2.0866489 
H     2.4853065    4.0599062    2.2844628 
H     3.4852436    4.2784542    0.9603870 
H    -1.7232321    2.1078075   -2.4771611 
H    -1.5125658   -0.0430181   -1.2896440 
H     0.1043084    3.7378485   -2.3875040 
H     2.1431056    3.2340186   -1.1184102 
H     2.6199397   -1.0414240    1.3258330 
O     1.7432608    1.8307184    3.4107815 
O     3.8474961    0.7334996    3.7271491 
H     4.7862772    0.6789940    3.3627145 
