27
Energy =
C    -1.5730509    1.1739985    0.7000773 
C    -0.8254750    0.0350533    0.7292361 
C     0.4623740    0.1040261    0.3317074 
C    -1.0197366    2.3498042    0.2759418 
C     0.2844805    2.3923840   -0.1251104 
C     1.0126263    1.2469165   -0.0858596 
N     1.4006834   -0.9605139    0.2867257 
C     2.2954861    1.0189603   -0.4222658 
C     2.5604102   -0.2829212   -0.2111213 
H     1.2750184   -1.9668436    0.5433275 
C     3.3118543    2.0111651   -0.9517361 
C     4.3316200    2.4369979    0.1372071 
H     2.8225920    2.9108650   -1.3825984 
H     3.8469079    1.5268826   -1.7977083 
C     3.7674912    3.4360285    1.1504320 
N     5.5447855    2.9713418   -0.5060396 
H     4.6146523    1.5489210    0.7476598 
H     5.9751114    2.2489288   -1.1309293 
H     5.2899748    3.7945451   -1.1037006 
H    -2.6115827    1.1475842    1.0218126 
H    -1.2479276   -0.9058837    1.0660064 
H    -1.6196334    3.2576226    0.2677070 
H     0.7267492    3.3305922   -0.4467226 
H     3.5193471   -0.7624888   -0.3949558 
O     2.5123613    4.0044808    0.9693637 
O     4.4974705    3.7997796    2.2777528 
H     5.4498568    3.4747485    2.2033632 
