27
Energy =
C    -1.2403984    2.2114957    0.6571435 
C    -1.1178122    0.8924172    0.3384286 
C     0.0881152    0.4406884   -0.0646895 
C    -0.1616679    3.0455905    0.5633150 
C     1.0471968    2.5662630    0.1518660 
C     1.1495714    1.2455070   -0.1560458 
N     0.4198662   -0.8855212   -0.4462349 
C     2.2084592    0.5299717   -0.5784841 
C     1.8073539   -0.7402232   -0.7699707 
H    -0.1878538   -1.7355750   -0.4874328 
C     3.6162658    1.0309889   -0.8399395 
C     4.6784200    0.3029318    0.0223520 
H     3.6993283    2.1241716   -0.6637603 
H     3.8451415    0.8642819   -1.9154793 
C     4.4206142    0.4268869    1.5220569 
N     6.0333870    0.7898095   -0.3125001 
H     4.6183411   -0.7890533   -0.1965382 
H     6.6139469    0.0022320   -0.6862321 
H     6.0334353    1.5448397   -1.0377833 
H    -2.2003456    2.6013889    0.9865975 
H    -1.9641515    0.2172163    0.4054235 
H    -0.2684263    4.0974529    0.8184359 
H     1.8941237    3.2396423    0.0790077 
H     2.4397356   -1.5510644   -1.1241244 
O     4.4182666   -0.7136861    2.3157610 
O     4.1930236    1.6617253    2.1219803 
H     3.2571632    1.9636103    1.9084743 
