27
Energy =
C    -1.1228612    3.0228723   -1.0327838 
C    -1.1765007    1.9336899   -0.2144825 
C    -0.0159420    1.3460833    0.1451516 
C     0.0826506    3.4951490   -1.4731614 
C     1.2417686    2.8828393   -1.0965199 
C     1.1644740    1.8020269   -0.2776372 
N     0.1470405    0.2026034    0.9723470 
C     2.1405321    1.0281335    0.2249162 
C     1.5736589    0.0614699    0.9678126 
H    -0.5791863   -0.3780611    1.4509350 
C     3.6281761    1.1616625   -0.0154975 
C     4.1119553    0.2658723   -1.1757216 
H     4.1629741    0.8877698    0.9219353 
H     3.8974042    2.2205981   -0.2253958 
C     5.6312468    0.1762900   -1.1961311 
N     3.5859495    0.7897568   -2.4490207 
H     3.7529928   -0.7784071   -1.0142548 
H     4.0023290    0.2467534   -3.2431380 
H     2.5565415    0.6047614   -2.4952262 
H    -2.0422467    3.5159838   -1.3382986 
H    -2.1242627    1.5436519    0.1405342 
H     0.1183303    4.3618122   -2.1289913 
H     2.1976033    3.2537547   -1.4554187 
H     2.1160953   -0.7236267    1.4901105 
O     6.4186972    1.3199850   -1.0927650 
O     6.2447250   -1.0648545   -1.3294406 
H     7.2489228   -0.9397505   -1.3401362 
