27
Energy =
C    -1.1626740    2.3487950    0.2642998 
C    -1.1047739    1.0429320   -0.1216184 
C     0.1039008    0.5107420   -0.3999299 
C    -0.0174886    3.0889190    0.3632662 
C     1.1922709    2.5292892    0.0742985 
C     1.2274142    1.2260755   -0.3088755 
N     0.3778296   -0.8189526   -0.8179680 
C     2.2714609    0.4489547   -0.6468853 
C     1.8034349   -0.7741282   -0.9551112 
H    -0.2846284   -1.6103071   -0.9860342 
C     3.7342686    0.8411524   -0.7103088 
C     4.5743265    0.2217146    0.4293052 
H     3.8603016    1.9443817   -0.7157415 
H     4.1354982    0.4890679   -1.6875006 
C     4.3507343    0.9313648    1.7792246 
N     5.9767288    0.2114306   -0.0275112 
H     4.2465732   -0.8306503    0.5942086 
H     6.3878164    1.1750389    0.0278397 
H     6.5491301   -0.4377525    0.5627594 
H    -2.1222577    2.8016749    0.5003446 
H    -2.0032390    0.4407950   -0.2017730 
H    -0.0691455    4.1270092    0.6824880 
H     2.0985972    3.1178233    0.1720765 
H     2.4163580   -1.6141323   -1.2738284 
O     3.0549248    1.2246097    2.1814620 
O     5.3842383    1.2313537    2.6702257 
H     6.2842103    0.9022025    2.3660178 
