27
Energy =
C    -1.5786796    1.7363533    0.0439810 
C    -1.1510534    0.6684381   -0.6881267 
C     0.1764686    0.4529612   -0.7924754 
C    -0.6796770    2.5706174    0.6506945 
C     0.6656010    2.3351275    0.5334996 
C     1.0632476    1.2550812   -0.1962528 
N     0.8315250   -0.5887426   -1.5098949 
C     2.3025116    0.8095960   -0.4589472 
C     2.2070214   -0.2797190   -1.2418444 
H     0.4184924   -1.3658024   -2.0719095 
C     3.5964113    1.3990548    0.0583088 
C     3.8893883    2.8044572   -0.5487169 
H     4.4341224    0.6907658   -0.1266340 
H     3.5098008    1.4857506    1.1650785 
C     5.1295415    2.7902761   -1.4148289 
N     4.0390407    3.7906216    0.5267436 
H     3.0484980    3.1343077   -1.1978387 
H     4.3145921    4.7264813    0.1226708 
H     3.1018424    3.8811741    0.9934649 
H    -2.6417487    1.9310913    0.1391558 
H    -1.8562386    0.0080874   -1.1776682 
H    -1.0538652    3.4280467    1.2171018 
H     1.4620258    3.0167570    0.9784994 
H     3.0511386   -0.8547833   -1.6141277 
O     5.0117119    3.0056968   -2.7811283 
O     6.4015932    2.5947065   -0.8746161 
H     6.3623757    2.4421842    0.1241669 
