27
Energy =
C    -1.2917320    1.1254118   -0.9180418 
C    -0.6894459   -0.0469716   -0.5709954 
C     0.6271163   -0.0263776   -0.2741972 
C    -0.5689601    2.2852199   -0.9586240 
C     0.7611703    2.2789367   -0.6556547 
C     1.3413815    1.1007357   -0.3148569 
N     1.4357189   -1.1295146    0.1100332 
C     2.6136927    0.8279548    0.0232584 
C     2.7056303   -0.4892332    0.2849372 
H     1.1730543   -2.1357747    0.2245916 
C     3.7782688    1.7997013    0.1074084 
C     3.7453557    2.7670603    1.3374284 
H     3.8541418    2.3481432   -0.8551701 
H     4.7212430    1.2102860    0.1585699 
C     2.7908766    2.3432910    2.4525131 
N     3.5054686    4.1703095    0.9305783 
H     4.7499468    2.7122142    1.8205536 
H     4.3636973    4.7451419    1.1041332 
H     3.2672920    4.2827583   -0.0793600 
H    -2.3528726    1.1395059   -1.1547558 
H    -1.2500254   -0.9748100   -0.5277062 
H    -1.0588768    3.2195270   -1.2224840 
H     1.3273695    3.2016425   -0.6697868 
H     3.6143657   -1.0050931    0.5865891 
O     1.4450807    2.6900687    2.4149890 
O     3.2391147    1.5098681    3.4708632 
H     3.2861068    0.5650379    3.1216570 
