27
Energy =
C    -1.3680075    2.4931372   -0.7086610 
C    -1.2116659    1.1552010   -0.4983666 
C     0.0382230    0.6768237   -0.3250565 
C    -0.2780851    3.3187086   -0.7363513 
C     0.9752529    2.8115017   -0.5556563 
C     1.1072014    1.4750242   -0.3533893 
N     0.4149189   -0.6705062   -0.0778786 
C     2.2106615    0.7399804   -0.1438104 
C     1.8385272   -0.5393518    0.0390115 
H    -0.1821689   -1.5265036   -0.0062957 
C     3.6382802    1.2413576   -0.0554360 
C     4.1060223    1.6325701    1.3820156 
H     3.7688708    2.1108883   -0.7335250 
H     4.2961515    0.4498504   -0.4839681 
C     5.3790688    0.8769898    1.7738135 
N     3.0158452    1.4518062    2.3623964 
H     4.4009858    2.7065799    1.3727855 
H     3.3901723    1.5452029    3.3381902 
H     2.3223869    2.2272969    2.2495363 
H    -2.3641077    2.9052664   -0.8508080 
H    -2.0661742    0.4874463   -0.4668724 
H    -0.4119996    4.3854130   -0.9000552 
H     1.8380024    3.4701139   -0.5691019 
H     2.5160134   -1.3565021    0.2796447 
O     5.5783067    0.4271781    3.0728952 
O     6.4153377    0.7366336    0.8575030 
H     6.9090854    1.6137155    0.7817748 
