27
Energy =
C    -1.3907495    2.3534367    0.1882313 
C    -1.2002493    1.0073868    0.2831184 
C     0.0491639    0.5247517    0.1183304 
C    -0.3348284    3.1815241   -0.0725719 
C     0.9184792    2.6692771   -0.2383152 
C     1.0874190    1.3244372   -0.1329927 
N     0.4526851   -0.8345959    0.1579681 
C     2.2018238    0.5814788   -0.2583150 
C     1.8555367   -0.7136403   -0.1073421 
H    -0.1198443   -1.6937143    0.3245054 
C     3.5870900    1.1030752   -0.6102877 
C     4.7493765    0.2648466   -0.0441223 
H     3.7079542    2.1372051   -0.2203080 
H     3.6793940    1.1498428   -1.7167596 
C     4.6771019    0.1500009    1.4721581 
N     6.0137954    0.8699685   -0.4977281 
H     4.6889631   -0.7712099   -0.4478804 
H     6.1700430    1.7698410    0.0199907 
H     6.8063055    0.2420996   -0.2209052 
H    -2.3867284    2.7692799    0.3184373 
H    -2.0277638    0.3355480    0.4844228 
H    -0.4951585    4.2543280   -0.1488474 
H     1.7499492    3.3334958   -0.4496549 
H     2.5294232   -1.5635365   -0.1748548 
O     4.5879474   -1.0995684    2.0721996 
O     4.6963344    1.2879150    2.2687112 
H     4.6308457    1.0005321    3.2369109 
