27
Energy =
C    -1.9374743    1.3729402   -1.1587435 
C    -1.1828566    0.6375474   -2.0234298 
C     0.1453575    0.5504933   -1.7986670 
C    -1.3499514    2.0048494   -0.0981547 
C    -0.0047538    1.9035772    0.1050609 
C     0.7276766    1.1603111   -0.7654507 
N     1.1027600   -0.1420418   -2.5823862 
C     2.0509057    0.9150912   -0.7853753 
C     2.3100278    0.1518432   -1.8685948 
H     0.9679131   -0.7140277   -3.4475496 
C     3.0602299    1.4834179    0.2066455 
C     4.4347655    0.7585198    0.3025110 
H     2.6043681    1.4435156    1.2206693 
H     3.2070975    2.5656471   -0.0006363 
C     5.3587866    0.8285158   -0.9263405 
N     4.2386454   -0.6257186    0.7723313 
H     5.0334716    1.2912943    1.0769880 
H     3.6646128   -0.6393664    1.6476092 
H     3.7285302   -1.1911757    0.0544627 
H    -3.0100619    1.4599502   -1.3156416 
H    -1.6317286    0.1349292   -2.8736659 
H    -1.9576598    2.5932841    0.5854765 
H     0.4590775    2.4125349    0.9440035 
H     3.2863985   -0.2023145   -2.1855171 
O     6.4807496    0.0111434   -0.9658391 
O     5.1873527    1.7382725   -1.9733879 
H     4.3438627    2.2781207   -1.8983606 
