27
Energy =
C    -0.9708356    3.0080565    1.1764158 
C    -1.1323247    1.7809537    0.6054802 
C    -0.0335482    1.1260565    0.1752159 
C     0.2777344    3.5512848    1.2998967 
C     1.3724792    2.8703644    0.8547305 
C     1.1889710    1.6462588    0.2940099 
N     0.0139478   -0.1427189   -0.4574353 
C     2.0914494    0.7923267   -0.2189140 
C     1.4223522   -0.2816485   -0.6901149 
H    -0.7676103   -0.7941691   -0.6994380 
C     3.5880699    1.0545390   -0.3213609 
C     4.4635994   -0.2029996   -0.5463908 
H     3.9302960    1.5435029    0.6184158 
H     3.7523338    1.7729219   -1.1534179 
C     4.2757946   -1.2288473    0.5605227 
N     5.8770622    0.1962785   -0.6659478 
H     4.1660716   -0.7093959   -1.4921089 
H     5.9854422    0.9447750   -1.3891382 
H     6.2076006    0.5852881    0.2520868 
H    -1.8384964    3.5571204    1.5334827 
H    -2.1162276    1.3374411    0.4962036 
H     0.3987467    4.5312355    1.7552869 
H     2.3618454    3.3069271    0.9519776 
H     1.8690414   -1.1448119   -1.1777853 
O     3.6377960   -2.4345008    0.2896707 
O     4.6870770   -0.9522098    1.8589893 
H     4.4696473   -1.7494963    2.4422553 
