27
Energy =
C    -0.8502627    3.9397771   -1.4832269 
C    -0.9495338    2.6252336   -1.8315789 
C    -0.0509747    1.7585782   -1.3189633 
C     0.1417253    4.3559369   -0.6383562 
C     1.0395650    3.4605028   -0.1358590 
C     0.9180756    2.1564774   -0.4932546 
N     0.0338986    0.3622788   -1.5657218 
C     1.6670978    1.0971304   -0.1503819 
C     1.1786291    0.0119354   -0.7765191 
H    -0.5728740   -0.2476654   -2.1610556 
C     2.9021183    1.1052568    0.7224236 
C     4.1570208    1.5153295   -0.0673881 
H     3.0661468    0.0953498    1.1646622 
H     2.7507771    1.7976177    1.5776307 
C     4.4533991    0.5252598   -1.1914942 
N     5.2812457    1.6201901    0.8762021 
H     3.9846688    2.5089295   -0.5430797 
H     6.1718318    1.7562599    0.3383506 
H     5.1613577    2.4821841    1.4577235 
H    -1.5608127    4.6600915   -1.8816506 
H    -1.7266024    2.2790005   -2.5050341 
H     0.2170142    5.4063889   -0.3675936 
H     1.8295541    3.7941981    0.5301876 
H     1.6099538   -0.9873551   -0.7247941 
O     4.4942402   -0.8419609   -0.9434505 
O     4.6520693    0.9815742   -2.4882152 
H     3.7532805    1.1587452   -2.9127149 
