27
Energy =
C    -1.0501513    2.0484161    0.9401560 
C    -1.0888732    0.9624289    0.1169573 
C     0.0511429    0.5860097   -0.4995002 
C     0.1213882    2.7277353    1.1297074 
C     1.2606056    2.3268186    0.4959350 
C     1.1979760    1.2444318   -0.3222027 
N     0.2266969   -0.5138475   -1.3808898 
C     2.1627932    0.6528467   -1.0460226 
C     1.6244238   -0.4017542   -1.6844917 
H    -0.4754872   -1.2114025   -1.7187656 
C     3.6210606    1.0585836   -1.1294560 
C     4.5143120    0.3304270   -0.1016147 
H     3.7191563    2.1555225   -0.9845620 
H     3.9966631    0.8494383   -2.1565626 
C     4.5402128   -1.1817883   -0.3019127 
N     4.1202113    0.7307285    1.2623132 
H     5.5642828    0.6562775   -0.2800124 
H     3.2103234    0.2678491    1.5001112 
H     4.8044071    0.3117393    1.9384247 
H    -1.9533557    2.3728899    1.4505695 
H    -2.0084228    0.4093496   -0.0408294 
H     0.1466874    3.5895637    1.7920398 
H     2.1923814    2.8607609    0.6572520 
H     2.1747455   -1.0877253   -2.3280095 
O     4.6012462   -1.7182913   -1.5838612 
O     4.5927393   -2.0387933    0.7903156 
H     4.6317419   -2.9928541    0.4550722 
