27
Energy =
C    -1.3723902    2.9895403   -0.1463636 
C    -1.3582116    1.6264659   -0.1753993 
C    -0.1635838    1.0003537   -0.2185752 
C    -0.1986917    3.6916517   -0.1555913 
C     0.9964397    3.0357611   -0.1959416 
C     0.9853910    1.6782842   -0.2315290 
N     0.0724586   -0.4007709   -0.2312067 
C     2.0077957    0.8096245   -0.2605108 
C     1.5060626   -0.4378190   -0.2502993 
H    -0.6141330   -1.1897074   -0.2259512 
C     3.4826663    1.1408434   -0.2383375 
C     4.1637919    1.3090116    1.1681280 
H     3.6464258    2.0674919   -0.8297593 
H     4.0052070    0.3527859   -0.8286192 
C     5.3948054    0.4235927    1.2945188 
N     3.2794944    1.1122068    2.3426866 
H     4.5677057    2.3483224    1.2020467 
H     3.2817790    1.9739143    2.9371854 
H     2.2837002    0.8886876    2.1387403 
H    -2.3205630    3.5199284   -0.1116703 
H    -2.2797595    1.0546036   -0.1613208 
H    -0.2183176    4.7785223   -0.1275321 
H     1.9272448    3.5951789   -0.1939747 
H     2.1030513   -1.3482893   -0.2240346 
O     6.5897940    0.9508984    1.7725918 
O     5.3509423   -0.9161337    0.9201555 
H     6.2499579   -1.3330842    1.1231994 
