27
Energy =
C    -1.1803885    1.9822793    0.9618789 
C    -1.1614456    0.7491944    0.3803634 
C    -0.0259718    0.3460229   -0.2274641 
C    -0.0687800    2.7782526    0.9262412 
C     1.0678959    2.3470455    0.3076156 
C     1.0616530    1.1174830   -0.2690292 
N     0.2066554   -0.8969260   -0.8751326 
C     2.0379851    0.4671921   -0.9216683 
C     1.5717300   -0.7395644   -1.2873190 
H    -0.4445965   -1.7033015   -1.0144565 
C     3.4493337    0.9578619   -1.1749647 
C     4.4841512    0.6020815   -0.0621531 
H     3.4323602    2.0596746   -1.3181798 
H     3.7747975    0.5582650   -2.1632756 
C     5.6943432   -0.1183186   -0.6601384 
N     3.8638983   -0.1722781    1.0340698 
H     4.8929873    1.5549714    0.3529899 
H     4.5956707   -0.4101965    1.7475581 
H     3.1799329    0.4377636    1.5434413 
H    -2.0818617    2.3321032    1.4587282 
H    -2.0321735    0.1028723    0.4043351 
H    -0.0901618    3.7587499    1.3959250 
H     1.9521307    2.9765768    0.2879927 
H     2.1536716   -1.5012674   -1.8017159 
O     6.7968371    0.6249730   -1.0596056 
O     5.6863308   -1.4909769   -0.8970133 
H     4.8428576   -1.9000890   -0.5213929 
