27
Energy =
C    -0.6584584    1.8912832    1.9272143 
C    -0.9038000    0.8187217    1.1219566 
C     0.0230383    0.4868937    0.1989791 
C     0.5030097    2.6012937    1.7948788 
C     1.4255951    2.2443679    0.8557189 
C     1.1572033    1.1758076    0.0619247 
N    -0.0285499   -0.5954410   -0.7195471 
C     1.8933286    0.6220196   -0.9143617 
C     1.2241043   -0.4390097   -1.3989981 
H    -0.7760946   -1.3127829   -0.8625175 
C     3.2664610    1.0596143   -1.3819983 
C     4.4759074    0.4225642   -0.6185805 
H     3.3357110    2.1669277   -1.3185618 
H     3.3325051    0.8368659   -2.4729344 
C     5.4432916   -0.2544722   -1.5773694 
N     4.0665747   -0.5043035    0.4529238 
H     5.0688072    1.2412329   -0.1496031 
H     3.4649751   -0.0177916    1.1569860 
H     3.5334458   -1.3128606    0.0508182 
H    -1.3880052    2.1807617    2.6795900 
H    -1.8172215    0.2413394    1.2173762 
H     0.6930630    3.4531422    2.4436237 
H     2.3506549    2.8042676    0.7575447 
H     1.5893390   -1.1034008   -2.1799257 
O     5.0373498   -1.3568246   -2.3196841 
O     6.7029015    0.2860224   -1.8040488 
H     6.6170469    1.0784656   -2.4222860 
