48
Energy =
C     1.0969182   -3.7322396   -0.3437089 
C     0.3301769   -2.6148851   -0.3740061 
C     2.4170330   -3.6503464   -0.0378144 
C     2.9675505   -2.4467915    0.2287704 
C     2.2243206   -1.2985534    0.1562485 
C     0.8737859   -1.3961173   -0.1142776 
H    -0.7274631   -2.7037754   -0.6082283 
H     4.0147563   -2.4056924    0.4996819 
H     2.7841544   -0.1730756    0.5537751 
H     0.6463397   -4.6954491   -0.5553715 
C    -0.0215085   -0.1671733   -0.1752348 
C     0.7359677    1.1820144   -0.1298702 
H    -0.7447355   -0.2112335    0.6677407 
H    -0.6051891   -0.2154143   -1.1215878 
C     1.9834652    1.1283674   -1.0006463 
O     3.2287465   -4.7898247    0.0180626 
H     2.7334169   -5.6508776   -0.1830657 
O     1.9598474    1.6769626   -2.2811646 
N    -0.1614411    2.2861683   -0.5047465 
H     1.0958553    1.3586263    0.9104360 
H    -0.4985679    2.1527483   -1.4884427 
H    -1.0040641    2.2801258    0.1167198 
N     3.0081428    0.1469846   -0.6696924 
C     4.3905760    0.7085164   -0.4936172 
H     3.1021319   -0.3975970   -1.5955807 
C     4.4460922    1.8871930    0.4929560 
O     4.8456337    1.6484098    1.8018518 
O     4.0816091    3.1850521    0.1338712 
H     3.7615883    3.2411009   -0.8220997 
C     5.0953501    1.0440153   -1.8450688 
H     5.0148975   -0.0727809    0.0018683 
C     5.5768511   -0.2044780   -2.5591565 
H     5.9873973    1.6836551   -1.6543700 
H     4.4378704    1.6447121   -2.5052719 
C     5.0091971   -0.8163403   -3.6136293 
C     3.9055906   -0.4808684   -4.3316936 
C     3.5285802   -1.2926447   -5.3605081 
C     4.2510603   -2.4150828   -5.6555200 
C     5.3561329   -2.7321679   -4.9235790 
C     5.7100436   -1.9126275   -3.9113845 
H     3.3252126    0.4067797   -4.1033054 
H     2.6463540   -1.0463334   -5.9468927 
H     3.9417911   -3.0587718   -6.4752616 
H     5.9381700   -3.6211490   -5.1418462 
N     6.8121346   -2.0680349   -3.0292300 
C     6.6518737   -0.9214101   -2.1847374 
H     7.5431948   -2.8160581   -3.0108908 
H     7.3017737   -0.6799589   -1.3457643 
