48
Energy =
C    -3.5906998    0.1667356    1.7390015 
C    -2.4378063    0.4759383    1.0937141 
C    -4.7017171   -0.1689289    1.0303238 
C    -4.6504168   -0.1934146   -0.3209251 
C    -3.4998604    0.1146212   -0.9715612 
C    -2.3864022    0.4553059   -0.2669359 
H    -1.5566768    0.7370121    1.6741705 
H    -5.5429789   -0.4640787   -0.8740879 
H    -3.4764777    0.0873492   -2.0578275 
H    -3.6203869    0.1873446    2.8229528 
C    -1.0992445    0.7801536   -0.9915599 
C    -0.3541993   -0.4940300   -1.4558420 
H    -0.4299302    1.3953605   -0.3475826 
H    -1.3374582    1.4156838   -1.8743945 
C     0.8011127   -0.1396469   -2.3709084 
O    -5.9055451   -0.4940136    1.6640487 
H    -5.8617151   -0.4490548    2.6762358 
O     0.7753570   -0.5366207   -3.7045316 
N     0.1134894   -1.2793533   -0.3000553 
H    -1.0395466   -1.1201726   -2.0743327 
H     0.6266840   -0.6562463    0.3690731 
H    -0.7113257   -1.6704474    0.2126178 
N     1.9041013    0.6400034   -1.8851504 
C     3.0927574   -0.2012362   -1.6154018 
H     2.1003110    1.3912775   -2.5828558 
C     3.9526697    0.4079290   -0.5133084 
O     4.0657709    1.7883380   -0.4011313 
O     4.7567749   -0.3875424    0.3043978 
H     4.5955174   -1.3737351    0.1609750 
C     3.9228955   -0.4755566   -2.8994712 
H     2.7626753   -1.1889234   -1.2161403 
C     4.5587626    0.7665711   -3.5041762 
H     3.2843618   -0.9941143   -3.6446288 
H     4.7324640   -1.1978000   -2.6539993 
C     4.1684289    1.4292025   -4.6088331 
C     3.1392412    1.1839387   -5.4615604 
C     2.9580237    2.0230544   -6.5210818 
C     3.7993039    3.0824434   -6.7152878 
C     4.8284114    3.3087786   -5.8515338 
C     4.9871319    2.4653888   -4.8101665 
H     2.4668358    0.3456616   -5.3200198 
H     2.1378714    1.8480016   -7.2140218 
H     3.6466799    3.7477046   -7.5620239 
H     5.5053911    4.1453198   -5.9916188 
N     5.9912915    2.5261970   -3.8087923 
C     5.6425254    1.3915299   -3.0030049 
H     6.7808097    3.2049952   -3.6985546 
H     6.1653717    1.1005953   -2.0906035 
