48
Energy =
C     2.3300655    4.9698728    1.4663744 
C     2.2052407    3.6267538    1.3326849 
C     1.2236151    5.7492655    1.6033080 
C    -0.0022605    5.1752900    1.6011785 
C    -0.1323039    3.8322445    1.4619670 
C     0.9726043    3.0473928    1.3313842 
H     3.0996677    3.0202915    1.2187144 
H    -0.8808686    5.8032748    1.7057311 
H    -1.1263166    3.3922819    1.4507272 
H     3.3183161    5.4180201    1.4580821 
C     0.8267164    1.5522283    1.1361468 
C     0.5208190    1.1970912   -0.3360764 
H    -0.0006479    1.1799853    1.7800418 
H     1.7448808    1.0227778    1.4743869 
C     1.6413594    1.6276565   -1.2725889 
O     1.3173953    7.1384098    1.7482258 
H     2.2668723    7.4943771    1.7077757 
O     1.3915241    2.6378651   -2.1947816 
N     0.2402419   -0.2413961   -0.4705619 
H    -0.3907487    1.7565064   -0.6490865 
H     0.9916154   -0.8043470   -0.0078794 
H    -0.6565742   -0.4609306    0.0233238 
N     2.9603929    1.0536352   -1.1589300 
C     4.1367937    1.6429456   -1.8391463 
H     3.0987879    0.2363403   -0.5234115 
C     4.1621486    3.1666474   -1.9400151 
O     4.5439614    3.9274331   -0.8350243 
O     3.8842470    3.8169906   -3.1515379 
H     3.3090172    3.1365837   -3.8772562 
C     4.4149869    0.9477814   -3.1869788 
H     5.0167641    1.3965106   -1.2043059 
C     3.3007141    1.0805439   -4.2178324 
H     4.6472007   -0.1139619   -2.9732421 
H     5.3391051    1.3796828   -3.6292390 
C     2.8382612    0.0885765   -4.9945501 
C     3.1002124   -1.2473673   -4.9379083 
C     2.5226599   -2.0682768   -5.8582469 
C     1.7067727   -1.5547921   -6.8222068 
C     1.4667832   -0.2173024   -6.8715399 
C     2.0458025    0.5802385   -5.9451069 
H     3.7427039   -1.6810368   -4.1804537 
H     2.7135542   -3.1372813   -5.8248402 
H     1.2511199   -2.2141267   -7.5553012 
H     0.8278395    0.2026066   -7.6420836 
N     1.9297926    1.9935282   -5.8838765 
C     2.6772372    2.3935951   -4.6867859 
H     1.4232466    2.5985094   -6.5717852 
H     2.5400013    3.4905165   -4.8133720 
