48
Energy =
C    -2.7993281    1.8594734    2.0326293 
C    -1.5023793    1.8858550    1.6338104 
C    -3.4239467    0.6709915    2.2485135 
C    -2.7451014   -0.4839657    2.0635178 
C    -1.4480743   -0.4637083    1.6646402 
C    -0.8176021    0.7236228    1.4503951 
H    -1.0162554    2.8432890    1.4626405 
H    -3.2552253   -1.4248595    2.2382516 
H    -0.9221058   -1.4031044    1.5171486 
H    -3.3357384    2.7910366    2.1772178 
C     0.6220807    0.7547198    0.9880967 
C     0.7493251    1.0287421   -0.5307401 
H     1.1444760   -0.1949642    1.2417161 
H     1.1634072    1.5468711    1.5540560 
C     2.1971515    1.2442184   -0.9485606 
O    -4.7599263    0.6079931    2.6577975 
H    -5.1969881    1.5151767    2.7788860 
O     3.2285564    1.0442286   -0.0316216 
N     0.1451604   -0.0662076   -1.3092844 
H     0.2257625    1.9836020   -0.7683845 
H     0.5176729   -0.9852531   -0.9706112 
H    -0.8910261   -0.0728241   -1.1565891 
N     2.4992854    1.6514430   -2.2957427 
C     3.9101069    1.6397003   -2.7379996 
H     1.7212149    1.9922612   -2.9038563 
C     4.2630540    2.9009161   -3.5132477 
O     5.3401704    3.6715980   -3.0944208 
O     3.5717836    3.2885527   -4.6630220 
H     2.8337420    2.6435161   -4.8967896 
C     4.1723227    0.3725956   -3.5787944 
H     4.6072469    1.6517969   -1.8665435 
C     3.9698217   -0.8842305   -2.7626157 
H     5.2114650    0.3874446   -3.9775750 
H     3.4937589    0.3551002   -4.4597053 
C     4.8337179   -1.4263191   -1.8912129 
C     6.0864310   -1.0311483   -1.5479313 
C     6.7616041   -1.7594216   -0.6130228 
C     6.1807064   -2.8574910   -0.0407988 
C     4.9199323   -3.2332015   -0.3991730 
C     4.2727454   -2.4973099   -1.3270419 
H     6.5463121   -0.1550162   -1.9956676 
H     7.7648688   -1.4616105   -0.3175972 
H     6.7243677   -3.4300331    0.7064026 
H     4.4430622   -4.0979246    0.0490184 
N     2.9595778   -2.7084106   -1.8281553 
C     2.8383900   -1.6099468   -2.7439421 
H     2.2725067   -3.4578652   -1.5846390 
H     1.9383956   -1.3655269   -3.3056876 
