48
Energy =
C    -0.5323021   -3.5251293   -2.2471502 
C    -0.4229422   -2.3990337   -2.9966590 
C    -0.0723823   -4.7117427   -2.7253319 
C     0.4951100   -4.7631711   -3.9508959 
C     0.6093412   -3.6406807   -4.7032578 
C     0.1540477   -2.4466174   -4.2295959 
H    -0.7856890   -1.4564801   -2.5941864 
H     0.8583840   -5.7150345   -4.3212419 
H     1.0694423   -3.7049558   -5.6849895 
H    -0.9842205   -3.4716693   -1.2624818 
C     0.2779166   -1.1890840   -5.0702627 
C     1.6033263   -0.4105372   -4.8686100 
H    -0.5807948   -0.5146960   -4.8559262 
H     0.1813946   -1.4570231   -6.1453619 
C     1.7079982    0.2452346   -3.4960232 
O    -0.1718974   -5.8914341   -1.9810384 
H    -0.5901872   -5.7646353   -1.0655878 
O     1.7732614   -0.5250372   -2.3404511 
N     2.7763662   -1.2511657   -5.1664552 
H     1.5971484    0.4304884   -5.5993768 
H     2.8812031   -1.9856431   -4.4238433 
H     2.6500325   -1.7398625   -6.0837701 
N     1.9169984    1.6600682   -3.3927732 
C     3.2165457    2.0947343   -2.8462803 
H     1.1961483    2.3120999   -3.7759461 
C     3.1956803    3.5712156   -2.4592351 
O     3.5077727    3.9426430   -1.1584473 
O     2.9302719    4.5727545   -3.3969532 
H     2.6759052    4.1947060   -4.2959062 
C     4.3398832    1.7858789   -3.8632293 
H     3.4128289    1.5388141   -1.8966773 
C     5.7054703    2.0069631   -3.2538503 
H     4.2212847    2.4061771   -4.7774085 
H     4.2703185    0.7307374   -4.2068150 
C     6.3990647    1.1316998   -2.5093471 
C     6.0875829   -0.1388354   -2.1442587 
C     6.9695383   -0.8208825   -1.3586247 
C     8.1330353   -0.2285434   -0.9507720 
C     8.4204163    1.0510857   -1.3242577 
C     7.5337087    1.7037841   -2.1047710 
H     5.1571784   -0.6072585   -2.4553972 
H     6.7418739   -1.8384095   -1.0495262 
H     8.8279353   -0.7771895   -0.3199534 
H     9.3332725    1.5394627   -1.0008246 
N     7.6270148    3.0392733   -2.5811396 
C     6.3949795    3.1604152   -3.3063716 
H     8.3934697    3.7379398   -2.4455471 
H     6.0439865    4.0771145   -3.7803266 
