48
Energy =
C     0.2232079   -0.7022908   -2.6816704 
C     0.1788212    0.6202162   -2.3809953 
C     0.6091064   -1.1083523   -3.9200082 
C     0.9284937   -0.1864886   -4.8556916 
C     0.8844525    1.1373408   -4.5606949 
C     0.5353238    1.5505051   -3.3105165 
H    -0.1179647    0.9278769   -1.3805888 
H     1.2190347   -0.5231922   -5.8448085 
H     1.1308732    1.8598610   -5.3332959 
H    -0.0431992   -1.4330544   -1.9255681 
C     0.5185235    3.0266638   -2.9599068 
C     1.8847510    3.6134726   -2.5049132 
H    -0.2239256    3.2016890   -2.1476363 
H     0.1435464    3.6073702   -3.8307967 
C     2.4842181    2.9561210   -1.2640589 
O     0.6873923   -2.4635511   -4.2561292 
H     0.4071207   -3.0880994   -3.5074950 
O     2.0005489    3.4111431   -0.0431392 
N     2.8301732    3.7458400   -3.6230733 
H     1.6695274    4.6464580   -2.1358519 
H     2.8604369    2.8653571   -4.1758215 
H     2.4890499    4.4892515   -4.2765791 
N     3.1063903    1.6591067   -1.2593604 
C     4.5638060    1.4579816   -1.4402430 
H     2.4821611    0.8266609   -1.2394085 
C     5.5053426    2.3135736   -0.5790445 
O     6.7556220    1.7914552   -0.2713852 
O     5.2651099    3.6353836   -0.2235503 
H     4.3645412    3.7214976    0.2158255 
C     4.9302960    1.5046488   -2.9367183 
H     4.7736563    0.4244964   -1.0800761 
C     6.1377677    0.6496302   -3.2564257 
H     5.1222848    2.5561558   -3.2455154 
H     4.0738140    1.1350914   -3.5359297 
C     6.1283164   -0.6417948   -3.6250570 
C     5.0809727   -1.4856508   -3.8213066 
C     5.3453575   -2.7706100   -4.1927333 
C     6.6364279   -3.1911280   -4.3553995 
C     7.6716615   -2.3287641   -4.1462090 
C     7.3848120   -1.0609853   -3.7831909 
H     4.0528620   -1.1623640   -3.6850741 
H     4.5235600   -3.4644482   -4.3571887 
H     6.8383932   -4.2183480   -4.6484935 
H     8.7015621   -2.6483261   -4.2638900 
N     8.3079394   -0.0182504   -3.5028729 
C     7.4167946    1.0533360   -3.1592765 
H     9.3529726   -0.0276062   -3.5458231 
H     7.7329446    2.0372275   -2.8116491 
