48
Energy =
C    -0.1592044    6.1736020   -1.7832668 
C     0.0425163    5.0590874   -2.5331396 
C    -1.2156511    6.2410667   -0.9306956 
C    -2.0635703    5.1924069   -0.8328314 
C    -1.8648704    4.0746887   -1.5763803 
C    -0.8088952    3.9999708   -2.4326307 
H     0.8944833    5.0159612   -3.2114776 
H    -2.9024802    5.2591130   -0.1484181 
H    -2.5554650    3.2412380   -1.4777180 
H     0.5269167    7.0105486   -1.8636920 
C    -0.5763239    2.7439549   -3.2511644 
C     0.4714534    1.7838045   -2.6293609 
H    -0.2489476    3.0265378   -4.2778193 
H    -1.5331913    2.1945664   -3.3921641 
C     1.8639511    2.4059039   -2.5655795 
O    -1.4522097    7.3732441   -0.1453429 
H    -0.7648085    8.1101130   -0.2613258 
O     2.3212065    3.1145628   -3.6726238 
N     0.0060282    1.2800892   -1.3247581 
H     0.5835885    0.9153663   -3.3171648 
H    -0.1173250    2.0758976   -0.6551033 
H    -0.9274087    0.8207938   -1.4398972 
N     2.7597596    2.1274618   -1.4728778 
C     4.2233619    2.1285757   -1.6772539 
H     2.3599784    1.8847365   -0.5392541 
C     4.8120956    3.5450082   -1.7338080 
O     5.1603704    4.1612888   -0.5363328 
O     5.0403891    4.2489048   -2.9197057 
H     4.6037049    3.8022326   -3.7094659 
C     4.6263995    1.1751087   -2.8308837 
H     4.6746965    1.7032935   -0.7522954 
C     6.1174522    0.9199233   -2.8436430 
H     4.3064197    1.5708864   -3.8173649 
H     4.0865611    0.2104632   -2.7121868 
C     6.7829052    0.0081809   -2.1168000 
C     6.3149035   -0.9131034   -1.2356363 
C     7.2137722   -1.7265835   -0.6104718 
C     8.5512513   -1.6061999   -0.8695098 
C     8.9981745   -0.6706231   -1.7549174 
C     8.0890891    0.1201511   -2.3628684 
H     5.2539250   -1.0064411   -1.0245296 
H     6.8651951   -2.4726795    0.0994405 
H     9.2616121   -2.2562508   -0.3650474 
H    10.0558362   -0.5575217   -1.9670974 
N     8.3428629    1.1604414   -3.2962695 
C     7.0120656    1.6324350   -3.5506387 
H     9.2535391    1.4883021   -3.6924040 
H     6.7676274    2.4737248   -4.1977825 
