48
Energy =
C     2.2248316   -5.4199264   -4.6040069 
C     2.1619183   -4.1625139   -5.1179590 
C     2.4281749   -5.6067248   -3.2696384 
C     2.5694629   -4.5333301   -2.4585811 
C     2.5073395   -3.2833382   -2.9774501 
C     2.2906202   -3.0836897   -4.2987800 
H     2.0115319   -4.0304107   -6.1861110 
H     2.7318441   -4.6853604   -1.3972791 
H     2.6052317   -2.2845298   -2.3617533 
H     2.1169655   -6.2750590   -5.2624887 
C     2.2790399   -1.6633665   -4.8483613 
C     1.5494938   -0.6330473   -3.9280696 
H     1.7860083   -1.6682420   -5.8456917 
H     3.3321942   -1.3433723   -5.0112236 
C     2.3179761   -0.3186129   -2.6206467 
O     2.4972880   -6.8864664   -2.7103660 
H     2.3822829   -7.6365799   -3.3828580 
O     2.7001466   -1.3596466   -1.7722773 
N     1.2498693    0.5833287   -4.7022109 
H     0.5844243   -1.0801296   -3.5861340 
H     2.1276753    0.9749342   -5.1246759 
H     0.6002346    0.3573090   -5.4916320 
N     2.4897377    1.0231657   -2.1360584 
C     3.8761241    1.5776712   -2.2075118 
H     1.7685527    1.6529203   -2.5562951 
C     3.8914324    2.9929405   -2.7918409 
O     3.9563017    4.0814096   -1.9277196 
O     3.7982555    3.2330519   -4.1700423 
H     3.7825724    2.3926371   -4.7286557 
C     4.9230289    0.6456804   -2.8910299 
H     4.2143197    1.7035141   -1.1552413 
C     6.3151199    1.2359512   -2.8418073 
H     4.6433742    0.4489667   -3.9473656 
H     4.9465928   -0.3411461   -2.3788595 
C     7.1953552    1.1355467   -1.8338306 
C     7.0918198    0.4794020   -0.6492133 
C     8.1401963    0.5448474    0.2209151 
C     9.2611156    1.2598087   -0.1000823 
C     9.3398316    1.9150331   -1.2932304 
C     8.2912439    1.8323175   -2.1386227 
H     6.1993956   -0.0823415   -0.3874949 
H     8.0819634    0.0293440    1.1766835 
H    10.0906003    1.3105909    0.6007570 
H    10.2177001    2.4932816   -1.5603344 
N     8.1627369    2.4507838   -3.4111018 
C     6.8482388    2.0209692   -3.7944536 
H     8.8462929    3.0495247   -3.9289501 
H     6.3309398    2.3326044   -4.7030373 
