48
 energy: -9.292587803888 gnorm: 0.000589762434 xtb: 6.6.0 (2ccbbd7)
C            1.79127050375956       -0.20478682527625        5.00219886474786
C            2.32054946633728       -0.87612987127522        3.92520347528657
C            0.57226077503872        0.46523258762798        4.89380382846986
C           -0.08900518632867        0.43653973856057        3.66670374122111
C            0.44846728879043       -0.23714085034072        2.59710951625702
C            1.65635707876337       -0.90903901091001        2.70697962390777
H            3.26395079137330       -1.38544653318150        4.02204117115492
H           -1.02472541492466        0.95913571892157        3.57782753320873
H           -0.05525337206927       -0.23318962580385        1.64645631780742
H            2.31457354827048       -0.18848735858457        5.94133368861654
C            2.25092207509845       -1.62505215019802        1.53083340318721
C            2.74664284456660       -0.68819224671985        0.40718941367555
H            1.50684220595903       -2.31439005677858        1.11814705735054
H            3.07724544019824       -2.25152426609197        1.88336295689965
C            1.63519079228829       -0.32153258219471       -0.55904588583967
O            0.01454257850233        1.15014687044862        5.95630529126518
H            0.59492053237856        1.07852382661014        6.74464752693140
O            0.47777276757468       -0.50136596800430       -0.23705906069305
N            3.35471792581238        0.52199335253731        0.94732969852980
H            3.50989425145928       -1.22453343607242       -0.17875686473544
H            2.64968976327213        1.00755327670052        1.48567542670030
H            4.09205310934766        0.27647609692484        1.59387638454674
N            1.94989442183448        0.21961877695478       -1.78855705396875
C            3.29600677099636        0.57915796172556       -2.24198762850192
H            1.20182956464266        0.57850529070664       -2.37700587157788
C            3.41326696082510        2.09084503396396       -2.29249049336163
O            3.34580554111568        2.65550100996767       -3.36175405570713
O            3.57160746594767        2.68995800509057       -1.08912702945350
H            3.51256937365087        2.00034413188440       -0.37588499655186
C            3.61904248504315       -0.07534754150366       -3.59101041051916
H            4.02042956716621        0.20991266240061       -1.50583653071644
C            5.08020056150036       -0.28796359047704       -3.81688179228952
H            3.20242795143636        0.54076599761859       -4.39407743010314
H            3.10451037186102       -1.03995081167149       -3.65176948894756
C            6.05562966516551        0.68524022267999       -4.19191943091342
C            5.98987379280032        2.06682763169441       -4.44075791467911
C            7.13023937669776        2.72975561380396       -4.79770036751409
C            8.35570249687630        2.05417688287971       -4.91200874533240
C            8.44960795306410        0.71245252526163       -4.66229633422277
C            7.29081160369275        0.01619360746595       -4.29556532017941
H            5.05671233183332        2.58380156030617       -4.30854804505421
H            7.09161599533894        3.79013981140874       -4.98503099414116
H            9.23727589970875        2.60573064836721       -5.19389493065366
H            9.38517554463291        0.18813653892581       -4.73844724333405
N            7.07291484309409       -1.31118262125863       -3.97345262919427
C            5.74249320492652       -1.48361890546898       -3.68366738233107
H            7.79593152827163       -2.03275747503679       -3.95788733160193
H            5.29123467343558       -2.42102811413382       -3.40107571359273
