48
Energy =
C    -2.7954932   -0.4345445    0.9658948 
C    -1.7234403    0.3965725    0.9919493 
C    -2.7618840   -1.6141181    1.6412888 
C    -1.6527039   -1.9551640    2.3358931 
C    -0.5764729   -1.1288628    2.3629285 
C    -0.6057215    0.0551825    1.6913181 
H    -1.7574407    1.3287175    0.4338369 
H    -1.6377266   -2.8999734    2.8680875 
H     0.3068836   -1.4213957    2.9242001 
H    -3.6765333   -0.1549040    0.3988694 
C     0.5987352    0.9739283    1.7222829 
C     1.7338328    0.5202057    0.7627211 
H     0.9720207    1.0079864    2.7699877 
H     0.3060947    2.0211566    1.4787416 
C     1.3952656    0.8563065   -0.7130864 
O    -3.8507385   -2.4924036    1.6393618 
H    -4.6349856   -2.1742348    1.0803565 
O     0.2236975    0.2864787   -1.1963128 
N     3.0113686    1.0339578    1.2816955 
H     1.7837946   -0.5953922    0.7647715 
H     2.9067705    2.0388174    1.5685143 
H     3.2679265    0.5111944    2.1523720 
N     2.1834636    1.5340605   -1.7256409 
C     3.5440719    2.0621741   -1.4824336 
H     1.5621985    2.2828099   -2.1127667 
C     3.5235921    3.5396712   -1.0504968 
O     2.8279738    3.8893512    0.0979120 
O     4.1837306    4.5639885   -1.7255385 
H     4.3891964    4.3281050   -2.6755288 
C     4.4458844    1.7057654   -2.7033047 
H     4.0440637    1.5379932   -0.6575309 
C     3.9241486    2.1254704   -4.0719733 
H     4.5548005    0.5976506   -2.7324736 
H     5.4687369    2.0956282   -2.5220290 
C     4.5514927    2.9000702   -4.9799255 
C     5.7489120    3.5429526   -4.9095558 
C     6.1657261    4.2636739   -5.9900013 
C     5.3968434    4.3250890   -7.1179509 
C     4.2072609    3.6637537   -7.1736307 
C     3.8129124    2.9624036   -6.0904051 
H     6.3724318    3.4980457   -4.0229932 
H     7.1161967    4.7908711   -5.9551936 
H     5.7370313    4.8993172   -7.9759724 
H     3.5892720    3.6932086   -8.0645533 
N     2.6343082    2.1855047   -5.9611992 
C     2.7931379    1.6606338   -4.6380139 
H     1.8615847    2.0305591   -6.6482572 
H     2.1178218    0.9349102   -4.1881164 
