48
Energy =
C    -0.6461167   -2.4215678   -4.0772619 
C    -0.7857854   -1.7744690   -2.8928119 
C    -0.7027224   -1.7281993   -5.2443752 
C    -0.9028600   -0.3923372   -5.2188510 
C    -1.0490072    0.2596620   -4.0378123 
C    -0.9869436   -0.4259647   -2.8630664 
H    -0.7272753   -2.3440262   -1.9697587 
H    -0.9422614    0.1509138   -6.1555614 
H    -1.2029377    1.3323557   -4.0456212 
H    -0.4781129   -3.4929023   -4.0870729 
C    -1.1160985    0.2976176   -1.5323556 
C     0.1413987    1.1257654   -1.1323693 
H    -1.3129157   -0.4437197   -0.7273212 
H    -2.0191883    0.9444739   -1.5506802 
C     1.4477181    0.4428104   -1.5155381 
O    -0.5473037   -2.3639676   -6.4804931 
H    -0.4890608   -3.3733783   -6.4099910 
O     2.0143260    0.6787141   -2.7641509 
N     0.0850696    2.5083520   -1.6531256 
H     0.1597606    1.1728108   -0.0190921 
H    -0.7437169    2.6833167   -2.2628654 
H     0.0404778    3.1909816   -0.8612109 
N     1.8607629   -0.7266118   -0.7863601 
C     3.2836120   -0.6844058   -0.3638355 
H     1.6793589   -1.5459218   -1.4070667 
C     3.6137889    0.5684363    0.4524537 
O     4.7690842    1.2933963    0.1843692 
O     2.8207038    0.9558784    1.5326285 
H     2.0302178    0.3394861    1.6481909 
C     4.2695087   -0.9100426   -1.5481961 
H     3.4396111   -1.5160433    0.3574487 
C     4.1189157   -2.2840876   -2.1724573 
H     5.3130167   -0.8289744   -1.1692450 
H     4.1790949   -0.0940971   -2.2945544 
C     3.5893538   -2.6022979   -3.3707642 
C     3.0775566   -1.8109778   -4.3501118 
C     2.5940932   -2.4034194   -5.4810113 
C     2.6315971   -3.7620229   -5.6188145 
C     3.1529006   -4.5377920   -4.6285570 
C     3.6229272   -3.9300627   -3.5193934 
H     3.0418783   -0.7323182   -4.2538041 
H     2.1586158   -1.7927662   -6.2731467 
H     2.2395874   -4.2253343   -6.5216977 
H     3.1902544   -5.6182972   -4.7228931 
N     4.1994607   -4.5580080   -2.3844704 
C     4.4916713   -3.4235341   -1.5613475 
H     4.3636514   -5.5755139   -2.2012069 
H     4.9477245   -3.4845887   -0.5749076 
