48
Energy =
C    -3.9064064    1.0098543   -1.3023456 
C    -2.8786885    1.6851196   -0.7282813 
C    -3.7782252    0.5112148   -2.5610167 
C    -2.6207617    0.6917485   -3.2366809 
C    -1.5900148    1.3657824   -2.6672354 
C    -1.7152670    1.8722335   -1.4102432 
H    -2.9947118    2.0737279    0.2796035 
H    -2.5309422    0.2885303   -4.2392809 
H    -0.6684065    1.5014760   -3.2258914 
H    -4.8297097    0.8680937   -0.7512557 
C    -0.5547174    2.5955430   -0.7626891 
C     0.2793686    1.6389533    0.1532071 
H    -0.9532564    3.4518319   -0.1740173 
H     0.0293716    3.0882935   -1.5539121 
C     1.7863946    1.5054815   -0.1075526 
O    -4.8169034   -0.1900176   -3.1817307 
H    -5.6500111   -0.2831820   -2.6108457 
O     2.4668795    0.5376129    0.6279303 
N     0.0462223    1.9913277    1.5630229 
H    -0.0764746    0.5906002    0.0072630 
H     0.3818326    2.9659663    1.7498570 
H    -0.9762151    1.9478423    1.7817530 
N     2.4928450    2.1678194   -1.1815402 
C     3.9360064    1.8728413   -1.3351937 
H     2.0528310    2.8755156   -1.8046649 
C     4.7194492    3.0761119   -1.8616380 
O     5.8801448    2.8793056   -2.5982001 
O     4.3873409    4.3839199   -1.5068221 
H     3.6382939    4.4130567   -0.8317587 
C     4.1137230    0.5925563   -2.1949110 
H     4.4030020    1.6878720   -0.3395443 
C     3.2964739    0.6041643   -3.4734805 
H     3.7889479   -0.2800710   -1.5850176 
H     5.1884239    0.4145209   -2.4146475 
C     3.7056378    0.9285666   -4.7128505 
C     4.9324790    1.2969917   -5.1642613 
C     5.0825290    1.5702395   -6.4923514 
C     4.0187703    1.4637186   -7.3440594 
C     2.7989109    1.0803252   -6.8732777 
C     2.6743211    0.8202839   -5.5549279 
H     5.7852434    1.3703118   -4.4989263 
H     6.0546647    1.8737939   -6.8746618 
H     4.1468255    1.6822812   -8.4015048 
H     1.9460170    0.9833795   -7.5366009 
N     1.5028529    0.3920889   -4.8764522 
C     1.9930811    0.2755376   -3.5349277 
H     0.5438384    0.2222828   -5.2573686 
H     1.3924794   -0.0407965   -2.6847136 
