48
Energy =
C     4.1555863   -4.6453652   -5.3063248 
C     3.9992745   -3.3076024   -5.4904012 
C     3.6721829   -5.2450949   -4.1821755 
C     3.0315436   -4.5023003   -3.2507771 
C     2.8759811   -3.1717562   -3.4415479 
C     3.3465310   -2.5631130   -4.5592582 
H     4.4023199   -2.8429268   -6.3865146 
H     2.6523506   -4.9789228   -2.3537652 
H     2.3394427   -2.4408331   -2.6856323 
H     4.6743901   -5.2325121   -6.0567404 
C     3.2309503   -1.0510963   -4.7053650 
C     1.9087310   -0.4610335   -4.1217011 
H     3.3112027   -0.7757067   -5.7803806 
H     4.1043530   -0.5891267   -4.1629317 
C     1.8505259   -0.5170875   -2.5762331 
O     3.8258018   -6.6168283   -3.9596394 
H     4.3060314   -7.1044202   -4.7084204 
O     1.8349026   -1.7722282   -1.9686326 
N     1.7036252    0.8885970   -4.6588660 
H     1.0420883   -1.1015754   -4.4381800 
H     2.5968729    1.4331269   -4.7303672 
H     1.3329129    0.8221928   -5.6363963 
N     1.6668268    0.6275394   -1.7332812 
C     2.8236460    1.5631836   -1.6150306 
H     0.7928691    1.1111704   -2.0400080 
C     2.6772714    2.7953905   -2.5280266 
O     1.4426521    3.4315048   -2.5943852 
O     3.7143418    3.3311810   -3.3018080 
H     4.6241569    2.9881664   -3.0397128 
C     4.2340175    0.8801537   -1.6680350 
H     2.7462141    2.0249223   -0.6134162 
C     4.3948394   -0.4897974   -1.0200907 
H     4.9695930    1.5537071   -1.1704443 
H     4.5399945    0.7992482   -2.7338935 
C     3.9547346   -0.9353687    0.1771482 
C     3.2406199   -0.3116558    1.1517379 
C     2.9322484   -1.0056179    2.2847656 
C     3.3444409   -2.2985073    2.4369239 
C     4.0730962   -2.9036886    1.4590275 
C     4.3616605   -2.1989241    0.3449448 
H     2.9202775    0.7130293    1.0615128 
H     2.3562729   -0.5248480    3.0716854 
H     3.0947011   -2.8441062    3.3435143 
H     4.4189848   -3.9257554    1.5666931 
N     5.1366959   -2.6409732   -0.7577809 
C     5.1295779   -1.4721299   -1.5792750 
H     5.5928158   -3.5674506   -0.9210029 
H     5.6832485   -1.3893936   -2.5087178 
