48
 energy: -9.361625213983 gnorm: 0.000963596094 xtb: 6.6.0 (2ccbbd7)
C            4.53058753478092        6.24442301536406        2.46270283040486
C            4.43408584820979        5.23097946266460        1.53965643963531
C            4.23222302362241        6.01039828666822        3.80540161767950
C            3.84019039249525        4.72526556029426        4.17981530562596
C            3.74941348704701        3.71795728772582        3.24961112344480
C            4.03501290395952        3.95635506654303        1.91307866757767
H            4.67563325311512        5.41483141303472        0.50643182384823
H            3.61307448609817        4.54427925806953        5.21529803611960
H            3.45358737563621        2.73263875938162        3.56070351729573
H            4.84121454971668        7.22765888646036        2.15829251957558
C            3.97242396353365        2.88438923438434        0.87133105352717
C            3.00363667006823        1.72269561055776        1.15460837698802
H            4.98071616683148        2.49844661551725        0.70681644855110
H            3.63141005844390        3.42069922264333       -0.16306089692591
C            2.31810268153245        1.21512819602147       -0.09843363483869
O            4.31852445742843        7.00442223642637        4.76077764236870
H            4.60670040277447        7.84604311474800        4.34641947680906
O            1.14534160844873        0.90415065242278       -0.02098279083969
N            3.62438055529907        0.62226578325520        1.88650931652707
H            2.18981521148652        2.10690843861629        1.79095904571964
H            4.12980536585943        0.01198648271644        1.25856969330114
H            4.28003087671707        0.96098714955020        2.57954963122625
N            2.99308166798961        1.11744962593406       -1.29792156331946
C            4.45278200082080        1.09527951219090       -1.45959785312790
H            2.47468143844761        0.83922557915956       -2.12778959351268
C            4.99892285759870        2.48988065547317       -1.63084963681803
O            6.10025581075956        2.64484310364047       -2.11004697668810
O            4.16548539805317        3.56760607683115       -1.13918748916773
H            3.10067908782315        3.34034901629386       -1.13217514911310
C            4.86822666832706        0.19244530725638       -2.62043909649070
H            4.88568203223471        0.67797126733765       -0.54263456632776
C            4.54536177791782       -1.24694924013856       -2.39088466167219
H            5.94412009046564        0.30624309829402       -2.78869062906959
H            4.38228936510536        0.53924050500789       -3.53684482338542
C            5.24740309787223       -2.36685846558113       -2.92692940550899
C            6.38569284704032       -2.47957447235593       -3.74370899621157
C            6.82085445743518       -3.72829471695756       -4.09211457448295
C            6.15214719046468       -4.88130387403075       -3.64943739038643
C            5.04222038267397       -4.79563948405046       -2.85417633293486
C            4.57942172316199       -3.52617408083512       -2.48513555674323
H            6.89464498191052       -1.59423633757679       -4.08104024516589
H            7.69223184752811       -3.83198721459304       -4.71726557912223
H            6.52152362952529       -5.84973410213825       -3.94384642315445
H            4.52355835965304       -5.67341442384614       -2.51273729379736
N            3.50678337995041       -3.11989133683884       -1.71024751454087
C            3.49274496647686       -1.74935363156417       -1.66648188769824
H            2.83658004689163       -3.74727361718987       -1.26211770214006
H            2.76027164372449       -1.16075543014686       -1.14103275205838
