48
Energy =
C    -1.0811098    0.4439631   -5.4332607 
C    -1.1465879    0.2431999   -4.0926789 
C    -0.2931432    1.4303858   -5.9388519 
C     0.4236959    2.2103215   -5.0984370 
C     0.3630373    2.0134287   -3.7576797 
C    -0.4276451    1.0296455   -3.2451340 
H    -1.7706507   -0.5560704   -3.7023102 
H     1.0504897    2.9920845   -5.5135709 
H     0.9596417    2.6423223   -3.1010617 
H    -1.6556723   -0.1902463   -6.0996021 
C    -0.4681523    0.7811037   -1.7512849 
C     0.4061210   -0.4274874   -1.3412832 
H    -1.5188433    0.5977870   -1.4369912 
H    -0.1339468    1.6899510   -1.2034557 
C     1.8427209   -0.3050437   -1.8386843 
O    -0.1997963    1.6619903   -7.3148743 
H    -0.7617193    1.0325385   -7.8776817 
O     2.2140162   -1.1575965   -2.8696132 
N     0.3512225   -0.6120907    0.1201782 
H     0.0019135   -1.3446125   -1.8333737 
H     0.5011981    0.2963304    0.6188739 
H    -0.6034915   -0.9501378    0.3888650 
N     2.5914363    0.8956486   -1.5191828 
C     4.0358552    1.0647338   -1.8799189 
H     2.5484365    0.9075588   -0.4748658 
C     4.4100520    2.5673566   -1.7794742 
O     5.4689743    3.0902241   -2.5056673 
O     3.7672305    3.4535805   -0.9102420 
H     3.0057184    3.0469733   -0.3992307 
C     4.3997962    0.4401038   -3.2664173 
H     4.6666787    0.5603350   -1.1139266 
C     5.8175721    0.6841535   -3.7503195 
H     3.6504457    0.7564143   -4.0250444 
H     4.3466207   -0.6623162   -3.1983633 
C     6.9369417    0.1074928   -3.2813469 
C     7.0959253   -0.8070094   -2.2895067 
C     8.3566381   -1.2435724   -2.0062848 
C     9.4271790   -0.7682975   -2.7118389 
C     9.2431545    0.1448450   -3.7071465 
C     7.9865632    0.5621382   -3.9680787 
H     6.2483819   -1.1927531   -1.7316019 
H     8.5110495   -1.9742682   -1.2160454 
H    10.4289102   -1.1207533   -2.4796087 
H    10.0810425    0.5300039   -4.2781289 
N     7.5803704    1.4900855   -4.9632800 
C     6.1609041    1.5127759   -4.7544041 
H     8.1605972    2.0026828   -5.6659320 
H     5.4686316    2.1585620   -5.2913500 
