48
Energy =
C    -3.6009431    2.8387734    0.6884625 
C    -2.6407379    1.9101277    0.9268148 
C    -3.2614115    4.0674639    0.2146843 
C    -1.9611538    4.3579908   -0.0183092 
C    -0.9965169    3.4334074    0.2186913 
C    -1.3310558    2.2036394    0.6968688 
H    -2.9294651    0.9310664    1.2997880 
H    -1.7030095    5.3401970   -0.3988973 
H     0.0433435    3.6841225    0.0209774 
H    -4.6409396    2.5952878    0.8761053 
C    -0.2565104    1.1679616    0.9424016 
C     0.2359599    0.5128539   -0.3710174 
H    -0.6098663    0.3824336    1.6470152 
H     0.6015333    1.6613235    1.4539336 
C     1.4591557   -0.3613632   -0.1489285 
O    -4.2270019    5.0465335   -0.0421701 
H    -5.1760146    4.7520296    0.1598920 
O     1.9197794   -0.6412204    1.1343153 
N    -0.8413266   -0.2651377   -1.0049168 
H     0.5665986    1.3178796   -1.0689655 
H    -1.2710572   -0.9184075   -0.3075179 
H    -1.5940442    0.3844057   -1.3341211 
N     2.2591849   -0.7580355   -1.2667502 
C     3.5835750   -0.1211525   -1.3778655 
H     1.8945480   -1.4974142   -1.9091884 
C     3.4650055    1.3184364   -1.8623370 
O     4.1611983    2.3189529   -1.1976569 
O     2.6850584    1.6646747   -2.9669766 
H     2.2095203    0.8599656   -3.3490297 
C     4.4735844   -0.9764372   -2.3039850 
H     4.0592323   -0.0684302   -0.3673133 
C     5.9166569   -0.5205443   -2.2726798 
H     4.0819496   -0.9595909   -3.3443212 
H     4.4271965   -2.0378765   -1.9699750 
C     6.5036069    0.3745876   -3.0846798 
C     5.9923942    1.0699104   -4.1333505 
C     6.8095871    1.9372864   -4.7965138 
C     8.1109921    2.0951864   -4.4075832 
C     8.6026499    1.3875718   -3.3511871 
C     7.7744674    0.5355155   -2.7110869 
H     4.9572985    0.9563445   -4.4400517 
H     6.4204130    2.5116768   -5.6338071 
H     8.7539991    2.7926205   -4.9384871 
H     9.6303862    1.5058272   -3.0254368 
N     8.0822884   -0.2795643   -1.5888767 
C     6.8224477   -0.9250400   -1.3644639 
H     8.9861480   -0.3823242   -1.0730705 
H     6.6279279   -1.6291114   -0.5581154 
