48
Energy =
C     4.2490572    4.9351812    3.5695163 
C     3.3476091    4.2352160    2.8355564 
C     5.5514634    4.9890671    3.1828990 
C     5.9430275    4.3441767    2.0607263 
C     5.0470725    3.6413131    1.3231503 
C     3.7413167    3.5792924    1.7086017 
H     2.3094395    4.2077363    3.1571326 
H     6.9837777    4.4011700    1.7587240 
H     5.3858617    3.1367556    0.4216011 
H     3.9251363    5.4527884    4.4662319 
C     2.7386794    2.8032657    0.8815554 
C     2.3737654    3.5460837   -0.4307659 
H     1.8095153    2.6077926    1.4633230 
H     3.1683393    1.8013045    0.6718120 
C     1.6797097    2.6139357   -1.4342352 
O     6.5057274    5.6975680    3.9187895 
H     6.1330620    6.1666307    4.7373776 
O     0.2930346    2.6543410   -1.5165727 
N     1.5368020    4.7214884   -0.1243867 
H     3.2904447    3.9146797   -0.9450163 
H     0.6503695    4.4294197    0.3536997 
H     2.0454440    5.3873284    0.5030969 
N     2.3166345    1.4290635   -1.9657425 
C     3.7608479    1.5531017   -2.2720935 
H     2.1391399    0.6624156   -1.2782876 
C     4.0688072    2.7156722   -3.2153819 
O     4.9874402    3.6750461   -2.8106121 
O     3.4636320    2.8421269   -4.4619911 
H     2.7111613    2.1758550   -4.5666714 
C     4.2494608    0.2181280   -2.8698470 
H     4.3386913    1.7311873   -1.3399098 
C     5.7533763    0.2057178   -3.0365837 
H     3.7580092    0.0415220   -3.8531453 
H     3.9450770   -0.6302669   -2.2200930 
C     6.6629569   -0.0919818   -2.0956647 
C     6.4863215   -0.4891666   -0.8088972 
C     7.5923609   -0.7109595   -0.0420406 
C     8.8430647   -0.5297421   -0.5650054 
C     8.9953531   -0.1250304   -1.8581493 
C     7.8861138    0.0831375   -2.5979540 
H     5.4945237   -0.6282121   -0.3907353 
H     7.4800477   -1.0318619    0.9908187 
H     9.7201184   -0.7053490    0.0531145 
H     9.9797172    0.0317604   -2.2862295 
N     7.8230573    0.5291660   -3.9450622 
C     6.4039614    0.5951132   -4.1471198 
H     8.6006879    0.7433655   -4.6109940 
H     5.9224171    0.9729109   -5.0495434 
