48
 energy: -9.286847380022 gnorm: 0.000751365975 xtb: 6.6.0 (2ccbbd7)
C           -2.83519852214478       -0.85987559703884        2.48872087026224
C           -1.56751530691810       -0.82291061214879        1.95798731502661
C           -3.91921320000942       -1.26390803721273        1.70875584407413
C           -3.68070485958060       -1.62782588144820        0.38371993315830
C           -2.41016467121414       -1.58867245362701       -0.13921809244563
C           -1.33412739392691       -1.19081487710403        0.64090404089129
H           -0.73832434858409       -0.50291178172639        2.56557476715432
H           -4.51658559449079       -1.93771422465597       -0.21759210154316
H           -2.24152206797790       -1.86704033066409       -1.16532351016937
H           -3.00356817715713       -0.57376161172638        3.51146489899896
C            0.04420446014077       -1.10253874344102        0.06489926991989
C            0.43493008996844        0.32432760936371       -0.32757917935459
H            0.12625672443943       -1.74900596648201       -0.81341956692111
H            0.77191105851677       -1.49240263165164        0.78468446909869
C            1.89321885096462        0.39820494156721       -0.71609452885097
O           -5.20641371197046       -1.30807046294854        2.20960494045794
H           -5.21113013537822       -1.02098498603554        3.14829879275153
O            2.69816202002147       -0.36408622321503       -0.21958800352224
N           -0.40652170246977        0.84582826125692       -1.39604527418454
H            0.30205845828390        0.98079021575464        0.54646477834518
H           -0.27565080476861        0.29076322869896       -2.23149816646669
H           -1.38339414042822        0.78365586344463       -1.14106673962371
N            2.25532278954025        1.36011942886100       -1.62704590057553
C            3.62208390451803        1.46224734009164       -2.10643125401401
H            1.55221345529839        1.86676785664104       -2.17926319210898
C            3.73502510083666        2.65736074235347       -3.02796846312854
O            3.11413458090516        2.60815235668199       -4.06750200996473
O            4.52781421686526        3.68881309480941       -2.64045962978307
H            4.91372165587363        3.53034587280516       -1.75173260813377
C            4.05465953800594        0.17869240953235       -2.81131044742359
H            4.25581032328796        1.61333328521508       -1.22241721282426
C            5.51436326272441        0.11544740043541       -3.11713646610046
H            3.47812358790742        0.07606057366242       -3.73544099972826
H            3.78117482392704       -0.67435491403223       -2.18132797282977
C            6.21323694462918        0.81324239664240       -4.14827159481301
C            5.81010296867703        1.73603331493778       -5.12948357110154
C            6.74615273295978        2.23249655262513       -5.99244690991271
C            8.09130473855979        1.83839272400416       -5.90985334700882
C            8.51025344865907        0.94967109998186       -4.95802604973608
C            7.56584978414896        0.42983034658993       -4.06382168990971
H            4.78959753173926        2.07567859716291       -5.15345651315776
H            6.45167961899236        2.94960874037172       -6.74077136440422
H            8.80506770218219        2.25063682076990       -6.60371135478746
H            9.53955509133929        0.64822704564526       -4.88193743779232
N            7.68215273459736       -0.45597187918774       -3.00762381747224
C            6.44449156568907       -0.63616211494976       -2.44234893631213
H            8.55616308082027       -0.88739834191807       -2.70161504583689
H            6.23705453388676       -1.27775103243813       -1.60100414788377
