48
 energy: -8.901452072634 gnorm: 0.000452432238 xtb: 6.6.0 (2ccbbd7)
C           -0.84272218035590        2.02703706700487       -4.43212596074798
C           -0.96537543993069        1.29842813569709       -3.25097960747854
C            0.42391599517465        2.41837365378490       -4.91988556680716
C            1.54632041394283        2.05406666838083       -4.22990868595897
C            1.51046856627943        1.22056587576060       -2.99376270030911
C            0.11547702048924        0.90503924673099       -2.52873684351868
H           -1.94759840635445        1.04908968812932       -2.88735187358420
H            2.49277906168866        2.38253779041761       -4.61577408844745
H            1.93301565888433        0.06943196844133       -3.40540178959740
H           -1.72134442655112        2.31849715822315       -4.97812696346546
C           -0.06281564764534        0.18387359448243       -1.22822677536662
C            1.26627132864732       -0.11218905671502       -0.50920019495628
H           -0.61523321844944       -0.74723094773916       -1.39542199537215
H           -0.69147273082814        0.78890924215998       -0.56781252152659
C            2.22432190084961        1.05010466070968       -0.57571478881265
O            0.54513185524851        3.16266698857190       -6.07961724291184
H           -0.34407204878660        3.36101351360949       -6.44547749374677
O            2.88525966084999        1.32424535623432        0.38442988859103
N            1.06400359721591       -0.46461632976437        0.88710977214789
H            1.75221325076345       -0.97063846102013       -0.99883179076365
H            1.97876962014900       -0.46689667711961        1.32949900438817
H            0.56199595575077        0.29083230056527        1.33262409180638
N            2.33797393092530        1.80679694656810       -1.80787741795025
C            3.78782025437038        2.12388739708316       -2.12818678758006
H            1.91356615859093        2.76108793203717       -1.70372016344987
C            3.86704571275683        3.31247775372776       -3.03455998750981
O            4.78344727179663        3.41505632657397       -4.04547761416737
O            2.94654756033676        4.30969775678220       -2.81301182157678
H            3.08808214578271        4.99747368278831       -3.49299809359229
C            4.52027360979642        0.86954447037024       -2.63478920494827
H            4.24219714108430        2.41504808773840       -1.16904174823753
C            5.94754165999603        0.78333878769880       -2.20320224705833
H            4.46153205778265        0.82946756577241       -3.72673898581605
H            3.99529001529735       -0.02005728686929       -2.27206898335337
C            6.97979658286500        1.69477762251594       -2.55516043879244
C            6.96576035498451        2.86184222629648       -3.31980513688961
C            8.12364093741137        3.56201529782587       -3.47951708244325
C            9.31907000582611        3.11846281735752       -2.88606573396069
C            9.35583035349845        1.97880003776610       -2.12664369531190
C            8.17077802607843        1.25102525240301       -1.95116292397093
H            5.84934983083531        3.17157322227575       -3.73276336130683
H            8.11716982665020        4.46820394812524       -4.06150238555937
H           10.22048425393869        3.69116412857500       -3.02831929693707
H           10.26462177153337        1.63752810713886       -1.66444041588775
N            7.86320194124476        0.09917403769239       -1.24658658860980
C            6.52292212553017       -0.17057699580706       -1.39923813712722
H            8.52993563789519       -0.43791881090483       -0.68909303915554
H            6.00702432449038       -1.00552352680995       -0.95325978850593
