48
 energy: -9.073843978087 gnorm: 0.000646908760 xtb: 6.6.0 (2ccbbd7)
C            0.84679085243119       -2.68218384737922        1.23606788318496
C            0.19880622648830       -1.47924465194737        1.08105134155422
C            2.22527764393987       -2.72526503713227        1.44921158047316
C            2.92305336775242       -1.51947029610252        1.50024098667649
C            2.26757280143326       -0.32212306208643        1.34481823395851
C            0.89621729746826       -0.28213877810037        1.13563145962316
H           -0.86368439113305       -1.45902449395666        0.91077278640735
H            3.98580521664726       -1.55124490629270        1.66008768649263
H            2.81859370492406        0.60189125435279        1.37576531862268
H            0.29604871944956       -3.60457892696100        1.19018443232777
C            0.20406343717782        1.02748041051317        0.91631765899198
C            0.01250243351362        1.37309181641186       -0.56909277444672
H            0.78474894136776        1.81779223324965        1.40367155339155
H           -0.76636413671220        1.01640832013045        1.42212850918125
C            1.31045644507634        1.22924582931090       -1.32793703249184
O            2.90652515725185       -3.91693442033952        1.61048171544240
H            2.28361524739843       -4.67173712887725        1.53532269737667
O            1.50576712191932        0.20472028871366       -1.94746382924244
N           -0.99014024744183        0.53977067962458       -1.21487768904500
H           -0.32922856218209        2.41636345216101       -0.66386783867841
H           -0.55333267881685       -0.34356179540881       -1.46520369416028
H           -1.77452608455570        0.35555759568251       -0.60003006125907
N            2.22003436871341        2.25973052791987       -1.26941993380051
C            3.52308492647762        2.21744509845354       -1.94648044124923
H            1.95783022287488        3.15951534093158       -0.86307249196016
C            3.36482842986918        2.54519668671416       -3.40266972026302
O            4.26004687155057        3.39462312928979       -3.98509616661373
O            2.33595860791211        1.92937912276316       -4.07098194615344
H            1.91783782166788        1.29229604877334       -3.44075463249195
C            4.22546677526907        0.86339161888737       -1.74904127785423
H            4.15092462658686        2.99725358379533       -1.49010369290807
C            5.72037519903004        0.91348384614219       -1.69932924823140
H            3.90124981369892        0.17160127932645       -2.53309799188530
H            3.86223449437339        0.42326613778572       -0.81500961172011
C            6.61706715884082        1.81281207042226       -2.35788499947225
C            6.44006614016892        2.89571442855185       -3.23100392673276
C            7.52979538929387        3.57069008752056       -3.69320744456641
C            8.82822554935172        3.19959302284737       -3.30917691255694
C            9.03678278297618        2.14422907906421       -2.46481250346334
C            7.92521107359686        1.44033142268508       -1.98325686150421
H            5.31074137116413        3.18735322203450       -3.61729225810175
H            7.39034901679709        4.39695943598611       -4.37015200885971
H            9.67049514978491        3.75211992802525       -3.69126300208448
H           10.02627556823003        1.84609080817152       -2.16792904152906
N            7.82400207171256        0.34856347881332       -1.14203814479703
C            6.49762305399108        0.03615404994864       -0.98341272926133
H            8.61737829953734       -0.14717385538794       -0.73159669515813
H            6.12641020603685       -0.77934146974541       -0.38401486450821
