48
 energy: -9.361937385890 gnorm: 0.000715439674 xtb: 6.6.0 (2ccbbd7)
C            2.95082644439642        5.77399648563378        3.14473470095773
C            2.90355155747315        4.85601178131571        2.12267903035131
C            4.04406950501952        5.81631157636118        4.01113800520866
C            5.08113296576786        4.90529592859900        3.81136461645613
C            5.02680953959558        3.99061112472904        2.78734295850779
C            3.93980765862841        3.95591200305697        1.92661266594926
H            2.05349663688655        4.82872059970315        1.46205761507863
H            5.92408308779364        4.93912928996983        4.47859421825417
H            5.83520429894020        3.29458842541816        2.64278917506635
H            2.14296226958172        6.46948313222236        3.28684327519442
C            3.86192895439176        2.94758645636417        0.82861702151455
C            2.97211064414342        1.74563416420686        1.18483148490627
H            4.87045058290850        2.61062107968364        0.58103631790963
H            3.43748893446117        3.50326426792242       -0.16308598361068
C            2.23830333992779        1.16320271660463       -0.00566362584624
O            4.12342568355630        6.72485708550858        5.04891461293057
H            3.32781110801051        7.29913946319302        5.05623433567520
O            1.07307017867216        0.84951497060214        0.14511156159211
N            3.68454754342518        0.71282934005585        1.92359814100968
H            2.17749097448240        2.10961011802063        1.85733649835566
H            4.33214231662609        0.21859742963042        1.32508577146825
H            4.21326349554572        1.11877483129943        2.68584750708272
N            2.85380917671474        1.00541398748404       -1.22799854666739
C            4.29355747373882        1.10495152813056       -1.48631509886709
H            2.29855658734353        0.68610926175994       -2.01863621277348
C            4.70669808793776        2.53552455490552       -1.72282161113049
O            5.76001707049860        2.75897139622129       -2.27739025757942
O            3.82488441499007        3.56948360529754       -1.21586360615269
H            2.80115893507090        3.25782020641710       -1.04048283795871
C            4.70737262214512        0.21494876056029       -2.65859073046635
H            4.82027818204455        0.74585356611823       -0.59436314318628
C            4.53802546954142       -1.24180810855051       -2.38075794142678
H            5.75319292710728        0.42282383629838       -2.90782691980732
H            4.12688611338417        0.49285863530068       -3.54293445650227
C            5.29571556683563       -2.30607231853096       -2.95308948701194
C            6.37019297414840       -2.33505157007329       -3.85857369144672
C            6.89151322091035       -3.54716780637562       -4.21763095181357
C            6.37260912890180       -4.74468561272211       -3.69864051148673
C            5.32786492568843       -4.74053932373849       -2.81544319621294
C            4.77922179220888       -3.50973016715164       -2.43365048929101
H            6.76390446092515       -1.41587412602963       -4.25455476472433
H            7.71472317811938       -3.58671468223595       -4.91146911247937
H            6.80666451876530       -5.68250282900861       -4.00341486559931
H            4.92440598111237       -5.65258283618701       -2.41357153119379
N            3.74079185373204       -3.18354864585131       -1.57849467790389
C            3.60113028964724       -1.81926029751362       -1.56040192457329
H            3.17141322315134       -3.85809172019320       -1.06428446924530
H            2.86729331261912       -1.28403401008770       -0.98258236771932
