48
Energy =
C     2.1977744   -4.4432929    1.1689689 
C     1.9425730   -3.3594709    0.3931149 
C     2.0278166   -4.3746451    2.5164933 
C     1.6031831   -3.2200754    3.0784198 
C     1.3465906   -2.1331285    2.3074320 
C     1.5123881   -2.1978753    0.9579169 
H     2.0841808   -3.4285991   -0.6824188 
H     1.4724132   -3.1777715    4.1541533 
H     1.0100477   -1.2133920    2.7788611 
H     2.5386996   -5.3645167    0.7092351 
C     1.2447291   -0.9862307    0.0933944 
C     2.5492711   -0.2681955   -0.3272940 
H     0.5716525   -0.2680087    0.6149062 
H     0.6865072   -1.3128954   -0.8131864 
C     2.2774394    0.7693989   -1.4035232 
O     2.2832995   -5.4724617    3.3448416 
H     2.5940828   -6.3002186    2.8482570 
O     1.2755755    1.7181827   -1.2194901 
N     3.2017817    0.3562351    0.8340919 
H     3.2476315   -1.0102272   -0.7804105 
H     2.5335927    1.0124802    1.3058512 
H     3.4686950   -0.3776803    1.5310819 
N     2.9273214    0.6749493   -2.6811968 
C     4.3418044    1.1353189   -2.6058805 
H     2.3633037    1.2752298   -3.3253061 
C     4.5689744    2.5748834   -3.0901206 
O     5.3659143    3.4179046   -2.3262832 
O     4.0607699    3.0632958   -4.2953704 
H     3.6062169    2.3472931   -4.8382190 
C     5.2454024    0.1092599   -3.3215490 
H     4.7022288    1.1485810   -1.5463853 
C     4.9397625   -0.0412001   -4.7953712 
H     5.1175994   -0.8805664   -2.8299332 
H     6.3145239    0.3799345   -3.1763651 
C     5.5423969    0.5882053   -5.8171943 
C     6.5472993    1.5016454   -5.8084403 
C     6.9703246    2.0117510   -7.0006107 
C     6.3888274    1.6075255   -8.1705571 
C     5.3774527    0.6934706   -8.1544879 
C     4.9773601    0.2030324   -6.9625400 
H     6.9976009    1.8406471   -4.8799911 
H     7.7675569    2.7510555   -7.0187764 
H     6.7283543    2.0228116   -9.1160071 
H     4.8986519    0.3688605   -9.0718405 
N     3.9338325   -0.7305250   -6.7249980 
C     3.9739750   -0.8302149   -5.2957229 
H     3.3056493   -1.2114251   -7.4083093 
H     3.3065611   -1.4492730   -4.7007439 
