48
Energy =
C     1.1682633    7.0677079   -0.6264368 
C     2.2353330    6.4520647   -0.0573475 
C     0.8854768    6.8682715   -1.9410043 
C     1.6709964    6.0504994   -2.6770645 
C     2.7404575    5.4337374   -2.1138356 
C     3.0355079    5.6350658   -0.7988871 
H     2.4443001    6.6178329    0.9965018 
H     1.4297022    5.8903548   -3.7231186 
H     3.3450508    4.7684453   -2.7226114 
H     0.5401417    7.7185761   -0.0271960 
C     4.2165452    4.9410501   -0.1491399 
C     3.8090740    3.6164784    0.5441199 
H     4.6618085    5.6275865    0.6037843 
H     5.0324691    4.7621945   -0.8902453 
C     3.4381505    2.5245408   -0.4570815 
O    -0.2034949    7.4894627   -2.5580831 
H    -0.7516738    8.0775875   -1.9399241 
O     2.2227818    2.5984287   -1.1296099 
N     4.8820366    3.1826231    1.4568423 
H     2.8869703    3.7847477    1.1479484 
H     5.7949439    3.1296036    0.9406318 
H     5.0033153    3.8843363    2.2251692 
N     4.2762810    1.3761380   -0.6536546 
C     5.0587232    1.2859980   -1.8984538 
H     4.2923133    0.6351350    0.0799358 
C     5.8790413    2.5512418   -2.1301072 
O     5.4108864    3.5486377   -2.9758455 
O     7.0242602    2.8204678   -1.3868891 
H     7.3081377    2.0242976   -0.8341573 
C     4.1192947    0.9463256   -3.0736975 
H     5.7903157    0.4546335   -1.7893979 
C     4.8936675    0.4881323   -4.2899850 
H     3.5015345    1.8354034   -3.3328760 
H     3.4022083    0.1555096   -2.7661204 
C     5.2928441   -0.7638463   -4.5630177 
C     5.0931247   -1.9128645   -3.8671045 
C     5.6194717   -3.0697849   -4.3620843 
C     6.3324784   -3.0606823   -5.5290501 
C     6.5244919   -1.8939706   -6.2078074 
C     5.9911684   -0.7632799   -5.6995916 
H     4.5321834   -1.9214702   -2.9376460 
H     5.4730485   -4.0035841   -3.8250685 
H     6.7506884   -3.9863114   -5.9158824 
H     7.0925115   -1.8679672   -7.1313993 
N     6.0885494    0.5483261   -6.2355347 
C     5.3588144    1.3002915   -5.2555439 
H     6.5592536    0.8769815   -7.1091869 
H     5.2362422    2.3825440   -5.2712970 
