48
Energy =
C    -2.8550832    1.5343097   -1.1025252 
C    -1.5706462    1.8777953   -0.8313818 
C    -3.4470736    0.5142716   -0.4256281 
C    -2.7486305   -0.1547652    0.5197153 
C    -1.4636835    0.1845309    0.7951575 
C    -0.8674177    1.2060791    0.1214817 
H    -1.1094113    2.6938026   -1.3820636 
H    -3.2327468   -0.9662371    1.0520618 
H    -0.9181089   -0.3683374    1.5553635 
H    -3.4066572    2.0767428   -1.8627529 
C     0.5706430    1.5775362    0.4067624 
C     1.5381950    1.0389699   -0.6730875 
H     0.8866112    1.2121838    1.4104662 
H     0.6465585    2.6877375    0.4575109 
C     2.9219434    1.6436207   -0.5016036 
O    -4.7676458    0.1322908   -0.6829228 
H    -5.2265921    0.6901733   -1.3947572 
O     3.6465684    1.3569688    0.6519662 
N     1.6048311   -0.4309596   -0.6310433 
H     1.1767797    1.3535599   -1.6790799 
H     1.8899284   -0.7438828    0.3287227 
H     0.6605916   -0.8358626   -0.8297246 
N     3.3058347    2.7781051   -1.2941493 
C     4.7408313    2.8993398   -1.6285335 
H     2.5625987    3.4118461   -1.6613453 
C     5.1635470    4.3255596   -1.9739136 
O     6.4111048    4.7637661   -1.5526476 
O     4.4157785    5.1713967   -2.7965408 
H     3.5435781    4.7590223   -3.0836840 
C     5.1408888    1.8836248   -2.7267646 
H     5.3448173    2.6720902   -0.7160980 
C     4.3961353    2.0826560   -4.0318246 
H     4.9882372    0.8523542   -2.3428619 
H     6.2345941    1.9686559   -2.9193006 
C     3.3308892    1.3924488   -4.4730698 
C     2.6784684    0.3404983   -3.9148554 
C     1.6037755   -0.1811456   -4.5719106 
C     1.2050852    0.3440533   -5.7694348 
C     1.8814264    1.3926393   -6.3182596 
C     2.9399642    1.8929981   -5.6468744 
H     2.9958586   -0.0898595   -2.9712826 
H     1.0647000   -1.0220120   -4.1413635 
H     0.3487794   -0.0794277   -6.2886375 
H     1.5820277    1.8176443   -7.2704078 
N     3.7746268    2.9708690   -6.0441252 
C     4.6955026    3.0248099   -4.9453092 
H     3.7286470    3.5635338   -6.9051988 
H     5.4995569    3.7565498   -4.8446191 
