48
Energy =
C     0.3638741    0.9835205    1.9884993 
C     0.6352585    1.5733104    0.7970857 
C    -0.1630442    1.7129531    3.0077767 
C    -0.4150032    3.0294828    2.8270192 
C    -0.1462373    3.6244722    1.6373252 
C     0.3841124    2.8997801    0.6143766 
H     1.0523338    0.9759216   -0.0104442 
H    -0.8346648    3.6012288    3.6478467 
H    -0.3576497    4.6831205    1.5116513 
H     0.5672391   -0.0730709    2.1238984 
C     0.6915585    3.5641020   -0.7109229 
C     1.8863404    4.5434513   -0.6236998 
H    -0.2105008    4.1202213   -1.0487949 
H     0.8907377    2.8015001   -1.4964911 
C     3.1646017    3.8986878   -0.0962716 
O    -0.4573690    1.1350470    4.2470124 
H    -0.2325198    0.1481176    4.3094374 
O     3.7228793    4.3781812    1.0829943 
N     2.1004894    5.1815626   -1.9351897 
H     1.6450312    5.3398686    0.1204841 
H     2.0702832    4.4716698   -2.7047630 
H     1.3183812    5.8526285   -2.1246765 
N     3.6367730    2.6422923   -0.6003251 
C     4.2480167    2.6187667   -1.9388828 
H     3.4806491    1.7844532   -0.0268114 
C     3.3412551    1.8967412   -2.9335809 
O     2.6469718    0.7590159   -2.5305518 
O     3.2145267    2.3231991   -4.2569570 
H     3.8214590    3.1044466   -4.4640664 
C     5.6269910    1.9445642   -1.8197354 
H     4.4012040    3.6609085   -2.3060776 
C     6.4141317    2.0431021   -3.1079969 
H     5.5173453    0.8841231   -1.5037873 
H     6.2022777    2.4502331   -1.0109758 
C     6.4508732    1.1474589   -4.1084431 
C     5.8408406   -0.0607703   -4.2223133 
C     6.0361667   -0.7802179   -5.3644099 
C     6.8280069   -0.2877850   -6.3645611 
C     7.4280585    0.9287604   -6.2296702 
C     7.2203175    1.6214047   -5.0901966 
H     5.2033642   -0.4522717   -3.4356786 
H     5.5542083   -1.7477631   -5.4823182 
H     6.9752317   -0.8660038   -7.2732509 
H     8.0541085    1.3364550   -7.0160635 
N     7.7352237    2.9033804   -4.7593179 
C     7.1597190    3.1042160   -3.4626261 
H     8.3625678    3.5308299   -5.3127404 
H     7.2977965    4.0000940   -2.8616859 
