48
 energy: -9.071616411979 gnorm: 0.000729196521 xtb: 6.6.0 (2ccbbd7)
C            0.28573253372716        4.40829201151748       -3.83561785133507
C            0.26165079426625        3.48325357504063       -2.81931890306109
C           -0.53387953151647        4.25395012226855       -4.95432049218099
C           -1.37015832902865        3.13934328695421       -5.01190999740934
C           -1.39008468790521        2.22026849936477       -3.99026174524431
C           -0.58425798040754        2.38442976367961       -2.87351369368987
H            0.90873982737060        3.59925347536623       -1.96616526205128
H           -1.99547366951839        3.01653753547708       -5.87803900806967
H           -2.03528558962663        1.36065007691335       -4.05028583208350
H            0.93738854704539        5.26193982766687       -3.77802211320856
C           -0.58569411042368        1.37118422843733       -1.76934369260936
C            0.51922297826704        0.32386777510104       -1.92647602337564
H           -1.56317026185268        0.88218488535854       -1.71309840502715
H           -0.44923148792477        1.88117140713203       -0.81095799791386
C            1.86304340029939        1.00465215033369       -1.95364270498279
O           -0.53494995968989        5.16374303449915       -5.99461238584893
H            0.14141014356147        5.85665840516624       -5.83617260255300
O            2.33120615981106        1.40276072710985       -0.90809926238101
N            0.51814216023887       -0.65335315287627       -0.84811344223095
H            0.37772185205467       -0.21379951154270       -2.87594775561867
H            0.92647428625898       -0.21283250131682       -0.03319018578211
H           -0.42528332407572       -0.93988016274347       -0.61648176732624
N            2.48429543720686        1.17820076648227       -3.16776068649639
C            3.82531929390565        1.73326400252892       -3.22995729077584
H            2.18456015429376        0.66605472349403       -3.99886933012073
C            4.08226107282679        2.24315373718575       -4.62215677807945
O            5.27779594179501        2.01915620235873       -5.25509717338830
O            3.05596529837451        2.94023032695949       -5.22051146608089
H            2.27952978086727        3.00657710253937       -4.61527026970780
C            4.84614218531628        0.69719096462115       -2.72371587830071
H            3.83209237451809        2.59072753203225       -2.54108036216530
C            6.03419680529904        1.29007514504136       -2.03918708001881
H            5.16807115169580        0.06751110613932       -3.55873872899407
H            4.33707778807140        0.02957160937454       -2.02002466486196
C            7.00808108819468        2.13694292645856       -2.63501970652004
C            7.12351294392763        2.65171370235183       -3.92638735047456
C            8.17471171661512        3.46555967577507       -4.22349537699413
C            9.13458241496766        3.78391195684294       -3.24616709345571
C            9.03934064650875        3.29464312888936       -1.97009380669599
C            7.96012134068628        2.45947884141420       -1.65051294700120
H            6.18950591674069        2.33474298510738       -4.66250435496254
H            8.26355068278450        3.87222219708675       -5.21671021027255
H            9.95702938679141        4.42878464791529       -3.50766224454452
H            9.76696120806931        3.53779342802897       -1.21679543268994
N            7.56491939069443        1.82794821858883       -0.48345307032501
C            6.40349947570169        1.13184303147369       -0.72560988744384
H            8.05686041587416        1.89559778389637        0.40934032898023
H            5.86485926301349        0.55543954311833        0.00916402111533
