48
 energy: -9.288383387779 gnorm: 0.000564889444 xtb: 6.6.0 (2ccbbd7)
C            2.59043516070918        4.01107221335869        1.84042899267610
C            2.03824733751136        2.75307774463179        1.85192461750481
C            1.78523510105049        5.13624372630415        1.66554349209973
C            0.41307412517252        4.94624131749252        1.50309412609822
C           -0.12786953127654        3.68212341958550        1.49410466572425
C            0.67627498021830        2.56455191153858        1.66711469823836
H            2.67476625409509        1.89126513400041        1.96159389774929
H           -0.20767476157872        5.81363308987355        1.36650645655056
H           -1.18532860177403        3.55038172568837        1.34204490426624
H            3.65739726337179        4.12980827268382        1.91946886317308
C            0.10754808745115        1.17965178665882        1.57795483585904
C            0.45585992479677        0.47479205348760        0.26118769727648
H           -0.97834915411999        1.21428001450191        1.70755190032939
H            0.49140678402566        0.57809988402513        2.40726595860536
C            1.95011305307516        0.30448296688033        0.15546289654557
O            2.31138778515844        6.41334109072757        1.64182928251249
H            3.29024355922749        6.37151725253483        1.68158466909271
O            2.48441666833638       -0.53051739857208        0.85470767668437
N           -0.17207150506585       -0.83315951314950        0.14659631521043
H            0.11134681775626        1.09168296940211       -0.58226684875939
H            0.33444590174539       -1.47615950719583        0.74128855250152
H           -1.13550136582969       -0.80319287136154        0.45746298042675
N            2.65370775589862        1.13986978640193       -0.68245011404415
C            4.10292216768167        1.21804448980707       -0.57122187840870
H            2.20089656069934        1.94680918056300       -1.11432065404345
C            4.54858199303897        2.64726061197188       -0.34136058233085
O            5.11975562185416        2.89750345648222        0.69898409501234
O            4.26328421514881        3.54829787281300       -1.31196726319486
H            3.79163924713712        3.12315071741263       -2.06073872601216
C            4.80634615724959        0.55854187391953       -1.75385681887597
H            4.35545827866426        0.65716390289294        0.34132234273309
C            4.40295843686504       -0.86733752274162       -1.91606127099884
H            5.89182212897311        0.62528720059267       -1.62821203930612
H            4.57129482841934        1.10816327841797       -2.66905916742213
C            4.68566850802888       -1.92947949854550       -1.00752940483616
C            5.42073531168598       -1.99394792031396        0.18870393596326
C            5.46808289229773       -3.18078559612036        0.86554814380656
C            4.80069556029402       -4.31897830899341        0.38476968743951
C            4.08054136510422       -4.27987066046247       -0.77768564396415
C            4.01893351141177       -3.07355337684386       -1.48641359841693
H            5.92135961299000       -1.11719575985790        0.55933069651624
H            6.02040382782615       -3.24355816771795        1.78847468438548
H            4.85396616638073       -5.23696321730250        0.94631969617883
H            3.55968711387850       -5.14420001124450       -1.14870466255169
N            3.36267068455699       -2.71530552685573       -2.65070011740404
C            3.58634672070770       -1.38252545657650       -2.89252680108791
H            2.75306352010157       -3.33452686854323       -3.18824453511184
H            3.15715949402476       -0.82369160038904       -3.70843100409934
