48
 energy: -9.293436558895 gnorm: 0.000794202889 xtb: 6.6.0 (2ccbbd7)
C            3.02760086212838       -3.50920481265132       -1.74073129732039
C            2.56300243025976       -2.42754833792877       -1.03161858546972
C            2.23821802121400       -4.09871167123950       -2.72828407185978
C            0.97180931684042       -3.56574910486839       -2.96762427365874
C            0.51668052949706       -2.48347998492144       -2.25318279966115
C            1.30338812824755       -1.89862943668889       -1.27160653468865
H            3.18868749080395       -1.95612364652653       -0.29328083228089
H            0.36254253702807       -4.02160110152312       -3.72745158094138
H           -0.46374479765320       -2.08436512284727       -2.44818488704600
H            4.01056371660509       -3.90207708346791       -1.55074345693548
C            0.79896005415980       -0.72757311349583       -0.48480151968840
C            1.26306314501019        0.64387979329856       -1.00499580615796
H            1.11589712110979       -0.83734261729279        0.55768756497445
H           -0.29558805363694       -0.76211636275194       -0.46967130586335
C            2.71307983725926        0.93002733635468       -0.68078860698139
O            2.68385646790367       -5.16856412413615       -3.48061735342245
H            3.57586192703367       -5.44399616995224       -3.17674696904475
O            3.41257138837162        0.11160398242231       -0.11977070238769
N            1.04116050020090        0.80910719342345       -2.43538425721624
H            0.67377545398210        1.42838053995194       -0.50123709438399
H            1.75266266905343        0.31507247141636       -2.95767662735789
H            0.13714851269901        0.44638129419155       -2.70914646792863
N            3.19314864996902        2.15904825019562       -1.06685847351247
C            4.60106289984082        2.47663495969072       -0.95549564750069
H            2.68253095459474        2.75664734784148       -1.72949919350100
C            4.80005953651175        3.94847892576795       -1.25317874703280
O            3.99484203250181        4.48710983614123       -1.98091379590652
O            5.89094495862758        4.54685874666704       -0.71208312201976
H            6.39799101505530        3.92491607474536       -0.14511609029517
C            5.43291560911669        1.59899513757717       -1.89342015258591
H            4.88087878249752        2.28541621157468        0.09062352952774
C            4.97559013734196        1.68172092333666       -3.31087391328398
H            5.36904455986939        0.55857144885095       -1.55894703023284
H            6.48862283425951        1.88156030873683       -1.83417832642210
C            4.26349909449930        0.67894255172641       -4.03448189086353
C            3.84419829022699       -0.62099963689067       -3.70762761506547
C            3.12752046648280       -1.32988632488830       -4.63071612075061
C            2.80751531632536       -0.78151759232316       -5.88210647851406
C            3.20407383387541        0.48216942675681       -6.22256547694397
C            3.94246095889830        1.22428760081428       -5.29257934252917
H            4.07322207122260       -1.02990922241736       -2.74016347562923
H            2.80443387340313       -2.33012155664485       -4.39895978732694
H            2.24013589805243       -1.36849476514668       -6.58528449836182
H            2.96082851418136        0.91271450983636       -7.17733061917992
N            4.45104501156235        2.51010410972555       -5.33015135570601
C            5.05748106981844        2.78097059580503       -4.12927377413757
H            4.31127490766289        3.17118073916817       -6.09644702851758
H            5.46918675277662        3.73796158738663       -3.84786543562992
