48
Energy =
C     4.6648888    5.9833701    0.7588429 
C     4.4640976    4.6436163    0.6737830 
C     3.7933392    6.7627423    1.4530612 
C     2.7260122    6.1946771    2.0589748 
C     2.5198090    4.8558245    1.9771480 
C     3.3894381    4.0712599    1.2836491 
H     5.1743756    4.0328684    0.1168381 
H     2.0382632    6.8267649    2.6095603 
H     1.6537491    4.4198679    2.4677874 
H     5.5245550    6.4289873    0.2697468 
C     3.1559524    2.5813438    1.1709058 
C     2.4712386    2.1980780   -0.1673980 
H     2.5479435    2.2125255    2.0269113 
H     4.1414044    2.0696871    1.2600557 
C     2.5393596    0.6936487   -0.4201579 
O     3.9701867    8.1464492    1.5585397 
H     4.7947932    8.4921199    1.0800012 
O     1.3731131   -0.0656876   -0.4192370 
N     1.0787073    2.6852029   -0.1875063 
H     3.0148885    2.6581738   -1.0220074 
H     0.5536293    2.3144132    0.6401322 
H     1.0612530    3.7308820   -0.1405601 
N     3.7875270   -0.0127635   -0.3875069 
C     4.8027657    0.1890432   -1.4405196 
H     3.9560281   -0.6541000    0.4194004 
C     5.5205363    1.5342681   -1.3092236 
O     5.1751178    2.6196137   -2.0993588 
O     6.4636485    1.7480361   -0.3046424 
H     6.6212392    0.9192613    0.2513883 
C     4.2814678   -0.2157541   -2.8496260 
H     5.6048105   -0.5553891   -1.2370914 
C     3.4073824    0.7919864   -3.5781656 
H     3.7152234   -1.1686197   -2.7487680 
H     5.1521373   -0.4652626   -3.4934861 
C     3.8054251    1.7041291   -4.4852851 
C     5.0516970    1.9971048   -4.9416252 
C     5.1856147    2.9665188   -5.8916984 
C     4.0842383    3.6156786   -6.3756929 
C     2.8423848    3.2997750   -5.9116914 
C     2.7366667    2.3422516   -4.9664815 
H     5.9298684    1.4937280   -4.5491947 
H     6.1743786    3.2278436   -6.2609918 
H     4.1991524    4.3874370   -7.1327436 
H     1.9574166    3.8005046   -6.2896175 
N     1.5425754    1.8474817   -4.3812563 
C     2.0631251    0.8339881   -3.5124266 
H     0.5493909    2.1303101   -4.5471619 
H     1.4426642    0.1493039   -2.9403547 
