48
Energy =
C     4.3824312    1.3383177    5.0307364 
C     3.4910256    1.5486213    4.0294528 
C     5.2032583    0.2545703    4.9987476 
C     5.1266079   -0.6115880    3.9629714 
C     4.2372496   -0.4062760    2.9591450 
C     3.4108302    0.6745659    2.9884082 
H     2.8457330    2.4224093    4.0670553 
H     5.7881980   -1.4706221    3.9483747 
H     4.1921814   -1.1112971    2.1340318 
H     4.4379543    2.0398542    5.8559694 
C     2.4330664    0.9105427    1.8593655 
C     3.1177514    1.5086065    0.6053890 
H     1.5968464    1.5694942    2.1841189 
H     1.9586851   -0.0626828    1.5948717 
C     2.1897587    1.5076814   -0.6051008 
O     6.1333533    0.0083668    6.0138545 
H     6.1299914    0.7020859    6.7537942 
O     0.8649858    1.1026967   -0.4737734 
N     3.6120893    2.8682652    0.8789171 
H     3.9744262    0.8534341    0.3339451 
H     2.8370276    3.4637089    1.2568307 
H     4.3674156    2.8332408    1.6032550 
N     2.6044552    2.0368605   -1.8699937 
C     3.8545275    1.5557206   -2.4903854 
H     2.0100831    2.7864308   -2.2927853 
C     4.3048867    2.5285540   -3.5782282 
O     4.1051063    2.2262568   -4.9206121 
O     4.8766239    3.7567945   -3.2483647 
H     4.8933647    3.9048950   -2.2486954 
C     3.6616508    0.1204322   -3.0427196 
H     4.6814234    1.5620165   -1.7471957 
C     3.7990102   -0.9347420   -1.9655100 
H     4.4345463   -0.0946893   -3.8157067 
H     2.6847322    0.0497226   -3.5676989 
C     2.8203425   -1.6494130   -1.3840334 
C     1.4800657   -1.6371568   -1.6003288 
C     0.6929319   -2.4562961   -0.8456995 
C     1.2501114   -3.2712514    0.1001081 
C     2.5984819   -3.2712937    0.2976878 
C     3.3557937   -2.4511588   -0.4604846 
H     1.0287103   -0.9787578   -2.3364326 
H    -0.3848003   -2.4528789   -0.9925304 
H     0.6145431   -3.9194614    0.6986900 
H     3.0564391   -3.9106512    1.0449903 
N     4.7657896   -2.2910388   -0.4015213 
C     4.9698732   -1.2907248   -1.4066639 
H     5.4644480   -2.7604850    0.2199412 
H     5.9404210   -0.8775149   -1.6747215 
