48
Energy =
C    -1.9874507    1.0270664   -7.7720065 
C    -1.3326005    0.2149408   -6.9039506 
C    -2.2631104    2.3139291   -7.4292951 
C    -1.8779961    2.7803131   -6.2198087 
C    -1.2236201    1.9726817   -5.3474370 
C    -0.9508935    0.6818197   -5.6831080 
H    -1.1116954   -0.8083544   -7.1964257 
H    -2.0978398    3.8101930   -5.9611808 
H    -0.9160060    2.3683209   -4.3828034 
H    -2.2876982    0.6453740   -8.7417597 
C    -0.2075198   -0.2139578   -4.7166294 
C     1.3078910    0.0881319   -4.6885981 
H    -0.3665085   -1.2869692   -4.9673665 
H    -0.6374355   -0.0736853   -3.7002313 
C     1.9830557   -0.6629826   -3.5531878 
O    -2.9388062    3.1760858   -8.2994059 
H    -3.1820827    2.7549280   -9.1891754 
O     1.9447460   -2.0532744   -3.5469268 
N     1.9321803   -0.2567231   -5.9775242 
H     1.4602077    1.1756064   -4.4926065 
H     1.6988477   -1.2442357   -6.2418210 
H     1.5680061    0.3748327   -6.7296356 
N     2.2643886    0.0012097   -2.3145433 
C     3.5660978    0.6766174   -2.1399943 
H     1.5198393    0.0227620   -1.5828312 
C     3.6909887    1.9451014   -2.9813850 
O     3.4488034    3.1731725   -2.3788354 
O     4.0366828    1.9259007   -4.3325054 
H     4.0815706    0.9911119   -4.7119237 
C     4.7398330   -0.3135909   -2.3414139 
H     3.6156306    1.0457373   -1.0899983 
C     4.8245399   -1.3048620   -1.2013870 
H     5.7010091    0.2423754   -2.4105906 
H     4.6329740   -0.8646843   -3.3026542 
C     5.3695480   -1.0905940    0.0067804 
C     5.9834205    0.0155149    0.5007952 
C     6.4521866   -0.0212051    1.7812105 
C     6.3009069   -1.1490003    2.5402080 
C     5.6789765   -2.2468364    2.0233861 
C     5.2252304   -2.1862396    0.7539121 
H     6.1014555    0.9138569   -0.0986934 
H     6.9472821    0.8517529    2.2008605 
H     6.6761526   -1.1701533    3.5607508 
H     5.5475233   -3.1484054    2.6127179 
N     4.5456211   -3.2054486    0.0353902 
C     4.3158282   -2.5498606   -1.2199539 
H     4.2839664   -4.1732595    0.3350811 
H     3.7890690   -2.9983999   -2.0600748 
