48
Energy =
C    -1.3268895   -1.1404205   -4.4580610 
C    -1.1655515    0.1822379   -4.2064555 
C    -0.2511190   -1.9211142   -4.7254291 
C     0.9823357   -1.3826486   -4.7432466 
C     1.1593275   -0.0734774   -4.4908910 
C     0.0825011    0.7385801   -4.2043211 
H    -2.0507548    0.7881863   -4.0089334 
H     1.8408861   -2.0026576   -4.9541232 
H     2.2262169    0.3248813   -4.4748802 
H    -2.3260262   -1.5745453   -4.4492333 
C     0.1931134    2.2587227   -3.9859400 
C     1.3920392    2.7964190   -3.1432313 
H    -0.7314442    2.6092185   -3.4644468 
H     0.1626564    2.7617540   -4.9781805 
C     1.6453230    1.9947961   -1.8804205 
O    -0.3845895   -3.2827496   -4.9832356 
H    -1.3410401   -3.6330261   -4.9611188 
O     0.6323358    1.9358899   -0.9393635 
N     2.5921750    3.0048733   -3.9848278 
H     1.0931780    3.7984152   -2.7343515 
H     2.8124282    2.1382400   -4.5371510 
H     2.3061100    3.6364298   -4.7709654 
N     2.6478178    0.9766427   -1.8307529 
C     4.0667834    1.3409481   -2.0092411 
H     2.3060414    0.0033785   -1.9857661 
C     4.3391801    2.8199704   -2.3819295 
O     3.6248516    3.5511534   -3.3734819 
O     5.4103226    3.4899071   -1.7972794 
H     5.9393106    2.9380634   -1.1371154 
C     4.7410818    0.3186947   -2.9608371 
H     4.5381632    1.2050179   -1.0081342 
C     6.2216649    0.5943493   -3.1306822 
H     4.2281259    0.2512236   -3.9505802 
H     4.6192354   -0.7018540   -2.5366976 
C     7.2112025    0.1748723   -2.3220882 
C     7.1572782   -0.5993898   -1.2067528 
C     8.3214749   -0.8698284   -0.5492520 
C     9.5069258   -0.3651582   -1.0068597 
C     9.5361430    0.4143352   -2.1244284 
C     8.3722882    0.6640191   -2.7596934 
H     6.2207322   -0.9985569   -0.8312563 
H     8.3093719   -1.4879773    0.3464041 
H    10.4308540   -0.5828151   -0.4749334 
H    10.4683362    0.8287406   -2.4952879 
N     8.1800732    1.4642230   -3.9160535 
C     6.7606185    1.3785619   -4.0849430 
H     8.8965935    1.9706272   -4.4881539 
H     6.2105270    1.9276550   -4.8479889 
