48
Energy =
C    -2.3242924   -3.1026903    0.6755035 
C    -1.8330767   -2.6733055   -0.5148207 
C    -1.5329041   -3.1032665    1.7818479 
C    -0.2547329   -2.6715639    1.6893116 
C     0.2409619   -2.2407407    0.5025397 
C    -0.5451709   -2.2430500   -0.6085559 
H    -2.4783654   -2.6768431   -1.3895755 
H     0.3657158   -2.6745241    2.5784842 
H     1.2691315   -1.8944199    0.4487169 
H    -3.3513544   -3.4453983    0.7402887 
C     0.0098135   -1.7549345   -1.9268007 
C     0.0613954   -0.2096737   -2.0035824 
H    -0.5742170   -2.1571660   -2.7847443 
H     1.0320372   -2.1748925   -2.0526687 
C     0.9995547    0.2499778   -3.1105353 
O    -2.0069337   -3.5403575    3.0230622 
H    -2.9741117   -3.8453210    3.0098960 
O     1.0190113   -0.4280660   -4.3252379 
N    -1.2860257    0.3464783   -2.1992512 
H     0.4721146    0.1856906   -1.0494513 
H    -1.7039599   -0.0385543   -3.0803921 
H    -1.9045887    0.0664351   -1.4027473 
N     1.6687093    1.5135234   -3.0331340 
C     2.7783950    1.6637278   -2.0740248 
H     1.3184642    2.2914125   -3.6385784 
C     3.0725993    3.1442595   -1.8349227 
O     4.1895858    3.7402440   -2.4112507 
O     2.2205443    3.9316633   -1.0605178 
H     1.3900423    3.4264032   -0.7846592 
C     4.0296112    0.9048929   -2.5829495 
H     2.4821542    1.2601418   -1.0828682 
C     3.9415326   -0.5879884   -2.3460511 
H     4.9439426    1.2749746   -2.0677130 
H     4.1671449    1.1194206   -3.6679063 
C     4.0357493   -1.2182150   -1.1636966 
C     4.2420843   -0.7112714    0.0793833 
C     4.2775225   -1.5755889    1.1338408 
C     4.1090930   -2.9178207    0.9328805 
C     3.9075194   -3.4043735   -0.3245794 
C     3.8801029   -2.5296624   -1.3515245 
H     4.3798132    0.3541014    0.2418690 
H     4.4429915   -1.1954033    2.1395636 
H     4.1388277   -3.6007749    1.7787101 
H     3.7720633   -4.4663729   -0.5012965 
N     3.6737271   -2.8248219   -2.7248731 
C     3.7280322   -1.5121563   -3.3001966 
H     3.5204843   -3.7476726   -3.1938543 
H     3.5749958   -1.2982833   -4.3571221 
