48
 energy: -9.290283147099 gnorm: 0.000431996896 xtb: 6.6.0 (2ccbbd7)
C            3.32596276551612        3.06789530811306        2.12948113973867
C            2.65692647405486        1.89917777414827        1.85423156812119
C            2.62168920606452        4.24028232007948        2.40355555058077
C            1.22814965710692        4.18748732307792        2.41036002173890
C            0.56634328512805        3.02031009503639        2.11097233470311
C            1.26948838003134        1.85991971815746        1.81992664595524
H            3.20969353013568        1.00887409089669        1.60755478116747
H            0.68632925085014        5.09167829089507        2.62267204094066
H           -0.50938876329058        3.00469738087232        2.07421360718889
H            4.40053285478377        3.10039605020313        2.09315722258920
C            0.55742240195251        0.63949568713386        1.32031412661849
C            0.34193754419099        0.67589030681700       -0.19899285975357
H           -0.40258273193685        0.53422009143172        1.83464057494777
H            1.13607375251448       -0.25325911921157        1.57385363748076
C            1.67070092592755        0.76102222173624       -0.91274454355251
O            3.26661776950024        5.43874729709382        2.64685001392998
H            4.21218285158959        5.36231209703179        2.39983479899513
O            2.21674062348859       -0.26545551836763       -1.25872006335072
N           -0.37982993628926       -0.48888486894331       -0.69194731527088
H           -0.24604138748218        1.56972618479025       -0.45723176941924
H            0.29180091355255       -1.24276170503949       -0.80818437406625
H           -1.09093409824574       -0.78759397536117       -0.03523874135582
N            2.23552821493159        2.00720725434761       -1.08207737555986
C            3.66318570981782        2.10962508404265       -1.34891420653692
H            1.85657486671816        2.80150681764630       -0.56432499718179
C            4.13687291942619        3.51824720218030       -1.06012203708983
O            5.11874918564492        3.66231416843801       -0.36264136599895
O            3.40778260577357        4.50839309088990       -1.62495617483619
H            2.64962617009210        4.12718715230802       -2.12628369462205
C            3.99640423105232        1.64298843223214       -2.76494769377367
H            4.16661207652237        1.43938761315096       -0.63793030410321
C            5.45556514339999        1.51533854277045       -3.06011198051670
H            3.53859815202520        2.32621088257398       -3.48538302785589
H            3.51787131813494        0.66970912463094       -2.91962867881902
C            6.02216029409841        0.72829476355392       -4.10598266140714
C            5.45869948808993       -0.12421368239058       -5.07071542281698
C            6.28970168190262       -0.74523685418402       -5.96165565110760
C            7.67903564416312       -0.54302633099054       -5.92283680901974
C            8.24941793329333        0.28131753694393       -4.99196375128691
C            7.41621107084809        0.92702870406297       -4.06983783513494
H            4.39444239955081       -0.27726478167699       -5.09546642956808
H            5.87347163342578       -1.40172832469674       -6.70760756572458
H            8.30473913569631       -1.04697252098330       -6.64075361091262
H            9.31180572886080        0.44279466345790       -4.95583497122641
N            7.68351181512612        1.80879711573839       -3.03780969326104
C            6.49920586515285        2.15975666913792       -2.44240101335999
H            8.61403020332535        2.14272673842307       -2.77991551851058
H            6.40679890606870        2.84528584235909       -1.61585807698871
