48
Energy =
C    -1.4025481   -2.2307861    0.4295309 
C    -0.4163207   -1.6943301   -0.3330875 
C    -2.2577224   -1.4212266    1.1096177 
C    -2.1206478   -0.0788676    1.0202798 
C    -1.1367139    0.4631096    0.2588671 
C    -0.2754640   -0.3426938   -0.4208424 
H     0.2559396   -2.3546181   -0.8748920 
H    -2.8105380    0.5555693    1.5660194 
H    -1.0441472    1.5442701    0.1982822 
H    -1.5063416   -3.3086595    0.4930266 
C     0.8131375    0.2624786   -1.2794970 
C     0.2709344    0.7788261   -2.6346567 
H     1.6260512   -0.4757457   -1.4599694 
H     1.2771306    1.1007179   -0.7123405 
C     1.3025372    1.6534981   -3.3376075 
O    -3.2838742   -1.9411705    1.9048378 
H    -3.3236280   -2.9545370    1.9165151 
O     1.9401052    1.2199162   -4.4968109 
N    -0.1539982   -0.3466172   -3.4836373 
H    -0.6077931    1.4420783   -2.4632379 
H     0.6563545   -0.9837612   -3.6710008 
H    -0.9068178   -0.8991458   -3.0124212 
N     1.6488071    2.9359066   -2.7862280 
C     3.0529123    3.3022611   -2.4796969 
H     0.8736812    3.5264103   -2.4084443 
C     3.4694264    4.4254196   -3.4231259 
O     3.5817174    5.7189819   -2.9295309 
O     3.6953618    4.2151205   -4.7798425 
H     3.2880953    3.3431763   -5.0904611 
C     4.0301635    2.0868456   -2.5272924 
H     3.0581924    3.7134621   -1.4487754 
C     5.3373575    2.0873294   -1.7285605 
H     4.2770462    1.8583998   -3.5894512 
H     3.4798321    1.1973857   -2.1598151 
C     6.0533178    3.0617071   -1.1043614 
C     5.8293361    4.3945012   -0.9451013 
C     6.7430317    5.1469810   -0.2657588 
C     7.8648321    4.5696028    0.2502437 
C     8.0808546    3.2376426    0.0896164 
C     7.1641111    2.5145052   -0.5868750 
H     4.9631420    4.8854903   -1.3333786 
H     6.5794635    6.2166138   -0.1393123 
H     8.5911254    5.1755531    0.7875408 
H     8.9703461    2.7619051    0.4897744 
N     7.2315536    1.1278501   -0.8566789 
C     6.0283634    0.9360626   -1.5986068 
H     7.9630655    0.4321892   -0.5818995 
H     5.7274073   -0.0215868   -2.0213012 
