48
Energy =
C     1.2464351   -1.4024154    2.2693186 
C     0.2810692   -0.9650376    1.4214440 
C     2.2217811   -0.5539065    2.6912942 
C     2.2200199    0.7298491    2.2674858 
C     1.2575141    1.1725634    1.4203562 
C     0.2836705    0.3247728    0.9851597 
H    -0.4912591   -1.6558084    1.0935363 
H     2.9999006    1.3983067    2.6152305 
H     1.2772823    2.2076548    1.0853652 
H     1.2371978   -2.4330547    2.6073896 
C    -0.7730248    0.8123855    0.0125965 
C    -0.3350408    0.7345092   -1.4727916 
H    -1.0271772    1.8692729    0.2566861 
H    -1.7163642    0.2400582    0.1514447 
C     0.9964061    1.4333774   -1.7326842 
O     3.2366087   -0.9751972    3.5562569 
H     3.1566004   -1.9448081    3.8425008 
O     0.9853996    2.8217895   -1.6906424 
N    -0.3681827   -0.6558659   -1.9661768 
H    -1.0677175    1.3293971   -2.0693792 
H     0.1033234   -1.3038014   -1.2946300 
H    -1.3643723   -0.9734154   -2.0325655 
N     2.2408096    0.6999833   -1.6423543 
C     3.5925290    1.3097076   -1.7057082 
H     2.1692011   -0.3309064   -1.5003706 
C     3.6428309    2.8424953   -1.8114173 
O     3.5188464    3.4604717   -3.0527079 
O     3.8440025    3.6430229   -0.6824266 
H     3.8267970    3.1065154    0.1704394 
C     4.3688065    0.6240299   -2.8525623 
H     4.1094374    1.0504170   -0.7557970 
C     5.8490849    0.9456616   -2.8100781 
H     3.9185806    0.9037970   -3.8300804 
H     4.2562680   -0.4796066   -2.7705118 
C     6.5306821    1.7841703   -3.6103800 
C     6.1048852    2.5377923   -4.6576013 
C     7.0150412    3.3162473   -5.3100803 
C     8.3234775    3.3291984   -4.9143442 
C     8.7300529    2.5637524   -3.8626372 
C     7.8109496    1.8027740   -3.2320114 
H     5.0675823    2.5372918   -4.9761586 
H     6.6957937    3.9333626   -6.1465729 
H     9.0416138    3.9548630   -5.4383112 
H     9.7639040    2.5639882   -3.5346160 
N     8.0276695    0.9423626   -2.1229477 
C     6.7075208    0.4281690   -1.9129486 
H     8.9123124    0.7381059   -1.6041881 
H     6.4430622   -0.2781309   -1.1297485 
