48
Energy =
C     0.2880667    4.9776316   -2.5018109 
C     0.3358074    3.7282799   -1.9739206 
C    -0.2022746    6.0118334   -1.7673507 
C    -0.6358921    5.7895035   -0.5063812 
C    -0.5891120    4.5435930    0.0269842 
C    -0.1085489    3.5014543   -0.7059184 
H     0.7418015    2.9158819   -2.5700128 
H    -1.0142978    6.6233816    0.0735440 
H    -0.9297590    4.3874105    1.0467311 
H     0.6473674    5.1485248   -3.5109157 
C    -0.0314234    2.1119015   -0.1036349 
C     1.2566742    1.8989084    0.7226314 
H    -0.1039540    1.3450303   -0.9044888 
H    -0.9169771    1.9414080    0.5475814 
C     2.5166423    2.1768765   -0.1021194 
O    -0.2734819    7.3094381   -2.2841398 
H     0.1116382    7.4018432   -3.2178255 
O     3.3432739    3.2393916    0.2431432 
N     1.1797447    2.7240108    1.9401547 
H     1.3121491    0.8258849    1.0187259 
H     0.4575768    2.3249880    2.5841677 
H     2.0911733    2.6781151    2.4563220 
N     2.8560475    1.2847063   -1.1898820 
C     4.1934547    1.2262999   -1.8392792 
H     2.0689363    0.7397403   -1.6039932 
C     5.1672362    2.3578776   -1.4855026 
O     5.2031980    3.5132949   -2.2614122 
O     6.0799534    2.2252211   -0.4360474 
H     5.8456069    1.4528965    0.1692606 
C     4.0099233    1.1352364   -3.3757307 
H     4.6944695    0.2944320   -1.4995086 
C     3.3691153   -0.1653146   -3.8095528 
H     4.9935443    1.2286660   -3.8895381 
H     3.3960313    1.9987140   -3.7204241 
C     3.9571649   -1.3702466   -3.8674837 
C     5.2368442   -1.7285966   -3.5884453 
C     5.5874025   -3.0392973   -3.7286672 
C     4.6650773   -3.9606683   -4.1422482 
C     3.3864852   -3.5765769   -4.4194464 
C     3.0640829   -2.2743142   -4.2726700 
H     5.9718763   -0.9968403   -3.2661274 
H     6.6061938   -3.3527286   -3.5130941 
H     4.9527323   -5.0032063   -4.2530307 
H     2.6436777   -4.2941696   -4.7509472 
N     1.8002568   -1.6696831   -4.5088211 
C     2.0852810   -0.3026966   -4.1860278 
H     0.9054166   -2.1079087   -4.8262251 
H     1.3583583    0.5042129   -4.2366379 
