48
Energy =
C     2.6189432    3.2589696    3.4054007 
C     2.2054276    2.1626901    2.7193860 
C     1.8613182    4.3879938    3.4101630 
C     0.6958345    4.4132668    2.7247863 
C     0.2789191    3.3209402    2.0357311 
C     1.0298911    2.1853905    2.0327249 
H     2.8257493    1.2685459    2.7164676 
H     0.1026958    5.3212162    2.7331220 
H    -0.6583353    3.3629865    1.4868066 
H     3.5581954    3.2314962    3.9475108 
C     0.5686131    0.9744682    1.2487104 
C     0.9181971    1.0957668   -0.2553049 
H    -0.5315277    0.8706919    1.3738044 
H     1.0107771    0.0402634    1.6636281 
C     2.4056695    0.9195486   -0.5463805 
O     2.2563032    5.5331341    4.1091119 
H     3.1493713    5.4413082    4.5809145 
O     3.2676365    0.4238148    0.4321767 
N     0.1253500    0.1281468   -1.0294454 
H     0.6584684    2.1226922   -0.6023092 
H     0.3145444   -0.8412202   -0.6756837 
H    -0.8956530    0.3193383   -0.8984641 
N     2.9165711    1.2466849   -1.8498883 
C     4.3696421    1.1661436   -2.0911687 
H     2.2549330    1.5681845   -2.5924690 
C     4.8829681    2.4845494   -2.6530885 
O     5.1544962    2.6107910   -4.0110531 
O     5.0535017    3.5985451   -1.8313452 
H     4.7469489    3.4179436   -0.8855250 
C     4.6621483   -0.0233735   -3.0299826 
H     4.9412160    1.0155743   -1.1468839 
C     4.2982618   -1.3426179   -2.3842081 
H     5.7451516   -0.0358172   -3.2878566 
H     4.1172909    0.1063245   -3.9904838 
C     3.1312880   -2.0001631   -2.4833758 
C     2.0118477   -1.6914682   -3.1874628 
C     0.9443358   -2.5371928   -3.1128095 
C     1.0091196   -3.6649568   -2.3424182 
C     2.1424710   -3.9539003   -1.6421199 
C     3.1860792   -3.1030083   -1.7343057 
H     1.9524178   -0.7914052   -3.7905939 
H     0.0355385   -2.3086807   -3.6642492 
H     0.1534994   -4.3332468   -2.2868205 
H     2.2103111   -4.8428689   -1.0242284 
N     4.4438840   -3.2153955   -1.0841154 
C     5.1003130   -2.0297159   -1.5518128 
H     4.7978835   -3.9627247   -0.4442506 
H     6.0991515   -1.7215424   -1.2520400 
