48
Energy =
C    -1.7762655    0.5877698    0.2920936 
C    -0.6039655    0.0683238    0.7385312 
C    -2.6105927   -0.1664751   -0.4719787 
C    -2.2639765   -1.4350486   -0.7878348 
C    -1.0919665   -1.9585444   -0.3469498 
C    -0.2583366   -1.2117294    0.4269925 
H     0.0642256    0.6866248    1.3378290 
H    -2.9363394   -2.0243916   -1.4018803 
H    -0.8279708   -2.9774175   -0.6185385 
H    -2.0430308    1.6089813    0.5431271 
C     1.0623623   -1.7828350    0.8956385 
C     2.1905922   -1.5218565   -0.1262180 
H     0.9551438   -2.8772300    1.0628765 
H     1.3435931   -1.3467291    1.8814994 
C     2.4429351   -0.0340817   -0.3149653 
O    -3.8252957    0.3373237   -0.9470059 
H    -4.0074227    1.2983224   -0.6786701 
O     2.6436572    0.7925618    0.7869005 
N     3.4192541   -2.2110943    0.2994285 
H     1.8831696   -1.9250254   -1.1192434 
H     3.7220349   -1.8430749    1.2344868 
H     3.2357096   -3.2362735    0.4075082 
N     2.4974240    0.5334491   -1.6266715 
C     3.8005970    1.0654136   -2.0614243 
H     1.6309412    0.5643372   -2.2116890 
C     3.6216376    2.2055868   -3.0612918 
O     2.6741304    2.0874012   -4.0728450 
O     4.4390443    3.3368142   -3.0430295 
H     5.1392412    3.2941943   -2.3175693 
C     4.6238976   -0.0929570   -2.6602765 
H     4.3376611    1.4902147   -1.1802630 
C     6.0532142    0.3183978   -2.9346654 
H     4.1364919   -0.4723053   -3.5854930 
H     4.6342541   -0.9458973   -1.9447168 
C     6.5500598    0.8198247   -4.0774876 
C     5.9372786    1.0601708   -5.2654507 
C     6.6766531    1.5929624   -6.2800426 
C     8.0020499    1.8744092   -6.0954963 
C     8.5958368    1.6269376   -4.8935602 
C     7.8433916    1.0993681   -3.9051067 
H     4.8821688    0.8497537   -5.4138589 
H     6.2060655    1.8020692   -7.2378740 
H     8.5826636    2.3033853   -6.9083119 
H     9.6442433    1.8505704   -4.7284580 
N     8.2608206    0.7834316   -2.5842537 
C     7.0392719    0.2890050   -2.0212608 
H     9.2034697    0.8853325   -2.1431664 
H     6.9283676   -0.0491323   -0.9932990 
