48
Energy =
C     0.9452585   -2.5058745   -0.1502512 
C     0.3063697   -1.3600551   -0.4978641 
C     1.8115549   -2.5150122    0.8973539 
C     2.0245132   -1.3786148    1.5968586 
C     1.3907693   -0.2298840    1.2528109 
C     0.5317469   -0.2092034    0.1946244 
H    -0.3638232   -1.3695311   -1.3511501 
H     2.7140870   -1.3995367    2.4329924 
H     1.5881679    0.6717787    1.8253022 
H     0.7690532   -3.4110348   -0.7210590 
C    -0.1346221    1.0918256   -0.2244592 
C     0.2619811    1.5741238   -1.6565428 
H     0.1277388    1.8979967    0.4958647 
H    -1.2358970    0.9806479   -0.1269974 
C     1.6978980    1.2118967   -2.0323274 
O     2.4989405   -3.6742124    1.2732116 
H     2.2792319   -4.4827244    0.7011374 
O     1.9383067    0.2751865   -3.0352262 
N    -0.6971627    1.0906325   -2.6738284 
H     0.2517231    2.6898988   -1.6561561 
H    -1.4568044    0.4900354   -2.2810213 
H    -1.1557005    1.9000892   -3.1532849 
N     2.7884821    1.6914759   -1.2185138 
C     4.1746565    1.7368127   -1.7304279 
H     2.5823634    2.0181665   -0.2487456 
C     4.3980577    2.8574054   -2.7453901 
O     5.2119424    3.9268738   -2.3925132 
O     3.8582678    2.8363795   -4.0318705 
H     3.2302127    2.0588862   -4.1714157 
C     4.6457140    0.3464131   -2.2245314 
H     4.8209622    2.0146009   -0.8650922 
C     6.1452810    0.1936463   -2.1117744 
H     4.3453710    0.1756455   -3.2819643 
H     4.1285291   -0.4509222   -1.6473273 
C     6.8237694   -0.3859560   -1.1082012 
C     6.3675904   -0.9977138    0.0160647 
C     7.2804787   -1.5084076    0.8913423 
C     8.6195362   -1.3970927    0.6366839 
C     9.0541733   -0.7738732   -0.4953953 
C     8.1318742   -0.2803024   -1.3481003 
H     5.3059859   -1.0867446    0.2263505 
H     6.9407357   -2.0073153    1.7962625 
H     9.3406825   -1.8058510    1.3402223 
H    10.1125662   -0.6730009   -0.7105292 
N     8.3711403    0.4100236   -2.5665727 
C     7.0307306    0.6892421   -2.9941321 
H     9.2799188    0.6464290   -3.0274407 
H     6.7709331    1.2551849   -3.8899516 
