48
Energy =
C     0.1250819    4.9210043   -0.8862301 
C     0.9037865    4.4457279   -1.8922073 
C    -1.0962150    5.4511688   -1.1598249 
C    -1.5320802    5.4990455   -2.4387209 
C    -0.7596073    5.0229440   -3.4478826 
C     0.4661971    4.4925716   -3.1810441 
H     1.8712023    4.0020503   -1.6565393 
H    -2.5093117    5.9224165   -2.6428081 
H    -1.1322759    5.0698384   -4.4673699 
H     0.4782296    4.8692742    0.1381549 
C     1.3333266    3.9654504   -4.3078448 
C     1.2083402    2.4347028   -4.5481975 
H     2.3947685    4.2449936   -4.1213007 
H     1.0764789    4.4942593   -5.2515830 
C     1.7929164    1.5877183   -3.4220798 
O    -1.9215870    5.9525012   -0.1479548 
H    -1.5308682    5.8634897    0.7836358 
O     1.2052911    1.5683614   -2.1629285 
N    -0.1844267    2.0549654   -4.8453313 
H     1.8302348    2.1900564   -5.4405110 
H    -0.7576807    2.1237865   -3.9673161 
H    -0.6031555    2.7084552   -5.5471521 
N     3.0511295    0.9266342   -3.5945250 
C     4.1752495    1.4479666   -2.7971513 
H     3.1294445    0.1529822   -4.2915140 
C     4.4995305    2.8859133   -3.1767525 
O     4.3906001    3.8850513   -2.2185080 
O     4.8101388    3.2514842   -4.4873982 
H     4.8352945    2.4502749   -5.1018124 
C     5.3900913    0.5107799   -2.9568802 
H     3.8780661    1.4656808   -1.7206072 
C     6.5288191    0.9226298   -2.0504240 
H     5.7366018    0.5061723   -4.0137632 
H     5.0870885   -0.5333061   -2.7226779 
C     6.7035798    0.5724233   -0.7666235 
C     5.9548278   -0.2383591    0.0246609 
C     6.3467712   -0.4226166    1.3180655 
C     7.4651593    0.2022825    1.7968662 
C     8.1975549    1.0171944    0.9853379 
C     7.7915286    1.1807830   -0.2912534 
H     5.0606196   -0.7275658   -0.3502049 
H     5.7637597   -1.0658404    1.9729310 
H     7.7684619    0.0535579    2.8301426 
H     9.0819313    1.5274018    1.3514572 
N     8.3934641    1.9971497   -1.2861835 
C     7.5051226    1.7816891   -2.3923394 
H     9.2544597    2.5879660   -1.2269926 
H     7.5780863    2.2868645   -3.3555361 
