48
Energy =
C     2.7530646   -0.7064510    2.7336073 
C     2.9327460    0.5759256    2.3266153 
C     1.5047622   -1.1654475    3.0153573 
C     0.4438293   -0.3366065    2.8889752 
C     0.6175411    0.9464091    2.4823789 
C     1.8649663    1.4116488    2.1968993 
H     3.9377982    0.9283142    2.1045894 
H    -0.5467659   -0.7148779    3.1165843 
H    -0.2486945    1.5952887    2.3827354 
H     3.6101901   -1.3639587    2.8320053 
C     2.0598134    2.8400501    1.7270932 
C     2.0776687    2.9866573    0.1849205 
H     3.0116196    3.2416361    2.1439419 
H     1.2596692    3.4903208    2.1442411 
C     3.2376361    2.2418091   -0.4598299 
O     1.2850996   -2.4814030    3.4348215 
H     2.1303818   -3.0367771    3.5088141 
O     4.5212645    2.4080607    0.0514735 
N     0.7770978    2.6023017   -0.3925255 
H     2.2651306    4.0595153   -0.0576141 
H     0.5835699    1.5874931   -0.2240015 
H     0.0080958    3.1584823    0.0493865 
N     3.0910663    1.6588782   -1.7597077 
C     3.5742221    2.4612725   -2.8991549 
H     2.7001055    0.6935647   -1.8291673 
C     2.6939525    3.6805597   -3.1648064 
O     3.0311692    4.9078257   -2.6009539 
O     1.5673758    3.5995605   -3.9803112 
H     1.3301232    2.5093860   -4.2426606 
C     3.7389569    1.5709638   -4.1519790 
H     4.5854575    2.8626144   -2.6553338 
C     2.4914619    0.7601406   -4.4957232 
H     4.6112309    0.9119525   -3.9702656 
H     3.9991935    2.2048469   -5.0293696 
C     2.4702924   -0.5445201   -4.8103201 
C     3.5029100   -1.4292472   -4.9015296 
C     3.2322734   -2.7196113   -5.2455038 
C     1.9497120   -3.1097344   -5.4957584 
C     0.9330176   -2.2100337   -5.4049563 
C     1.2234853   -0.9356260   -5.0613640 
H     4.5300088   -1.1385812   -4.7133496 
H     4.0422063   -3.4411923   -5.3229144 
H     1.7392709   -4.1402954   -5.7709147 
H    -0.0919755   -2.5047293   -5.6049844 
N     0.2830307    0.1171700   -4.9329101 
C     1.0592873    1.2974093   -4.5365767 
H    -0.7489769    0.0536247   -5.0925422 
H     0.1719134    1.9646102   -4.5123580 
