48
 energy: -9.286163577751 gnorm: 0.000725041492 xtb: 6.6.0 (2ccbbd7)
C           -0.98258209298226       -2.90758676557888       -3.03856124125752
C           -0.12141955453665       -2.89156642008669       -1.96669056988659
C           -1.58304205179709       -1.73075022746097       -3.48748379835598
C           -1.28434200421393       -0.54281509778388       -2.82180943192684
C           -0.43023241122817       -0.53905829425349       -1.74639673137945
C            0.16473383306877       -1.70938420910906       -1.29850167582373
H            0.33546739117702       -3.80682826101679       -1.63189251465437
H           -1.74076453464939        0.36709022658571       -3.16838299599861
H           -0.20932051028907        0.38192943415601       -1.23552707868198
H           -1.20068901304627       -3.83059892401562       -3.54497091155364
C            1.08812168583343       -1.69643883252366       -0.11496098896521
C            2.38484472997994       -0.91291942004252       -0.35654792091924
H            1.32659617461005       -2.72407549508312        0.17583774131619
H            0.57002671810955       -1.25328235806508        0.74106875413095
C            2.11492872870348        0.57200541307308       -0.43633795898353
O           -2.45076235400627       -1.71582620603977       -4.56339437572712
H           -2.59803659091086       -2.63111022948577       -4.88722321705732
O            1.16853191252360        1.02718407207897        0.17489816980876
N            3.38840211962983       -1.16134525975886        0.66836559596366
H            2.79853188357407       -1.24304121414193       -1.31747537859924
H            3.07811254906557       -0.74164218866665        1.53405029916916
H            3.50104624588503       -2.15381850360513        0.83102718698633
N            2.94184348960240        1.38495363689277       -1.17933779005316
C            4.25745362428273        1.01417692188454       -1.70606796886855
H            2.79170501452371        2.39651937330813       -1.15583716786493
C            5.02169409892421        2.29697408755639       -1.97373764614287
O            4.39015513511055        3.24704651152762       -2.38184273271981
O            6.36210999307595        2.27516862979355       -1.76497731136691
H            6.65993829550320        1.40343984328739       -1.42393921444233
C            4.17000535264593        0.17520342972643       -2.99651751039157
H            4.78026727800753        0.45829760740073       -0.91464278445691
C            3.02163604837337        0.55299525340859       -3.87068680159765
H            4.10335796626718       -0.89096091348249       -2.76323677246467
H            5.10010490321468        0.29005072281260       -3.56315387563441
C            2.18618715326363       -0.33391498051754       -4.61255293270931
C            2.16270668597752       -1.73198064980466       -4.75430541284456
C            1.21799932049236       -2.29157821521167       -5.56884612727518
C            0.28111887576501       -1.49640116186291       -6.24839844834950
C            0.27962234066550       -0.13474586992945       -6.11875330564007
C            1.24334812735981        0.45975892388755       -5.29504202125710
H            2.88074971256480       -2.33794101211970       -4.23127579055854
H            1.18676030942091       -3.36169287242637       -5.68928365894787
H           -0.45799164159749       -1.96968221886763       -6.87323946132418
H           -0.44205195997864        0.47948109152574       -6.62659991107398
N            1.50439649784854        1.78180809797860       -4.97915938195581
C            2.57800896770542        1.82510863685514       -4.12740659677383
H            0.97933827699954        2.58390348241545       -5.33223277990730
H            3.00700865626070        2.72022398351835       -3.70590166374615
