48
Energy =
C    -4.5263855   -0.1220666   -2.5277258 
C    -3.2102594    0.1594632   -2.7018542 
C    -5.2046027    0.4053651   -1.4735481 
C    -4.5594963    1.2112768   -0.5998335 
C    -3.2434281    1.4961891   -0.7689646 
C    -2.5615005    0.9744854   -1.8252274 
H    -2.6798266   -0.2729543   -3.5467753 
H    -5.1108997    1.6237586    0.2378763 
H    -2.7423501    2.1411906   -0.0522092 
H    -5.0342348   -0.7714346   -3.2325938 
C    -1.0901604    1.2706559   -2.0099620 
C    -0.1996559    0.1112425   -1.5065297 
H    -0.8099082    2.2163904   -1.4944699 
H    -0.8934949    1.4463574   -3.0921989 
C     1.2472345    0.3189807   -1.9224099 
O    -6.5608229    0.1341956   -1.2643189 
H    -6.9706766   -0.4751277   -1.9636230 
O     1.7008931   -0.4127067   -3.0054493 
N    -0.3235162   -0.0530417   -0.0457085 
H    -0.5127060   -0.8346960   -2.0117609 
H    -0.3114784    0.8781323    0.4331928 
H    -1.2511926   -0.4893922    0.1725102 
N     1.9774417    1.4505691   -1.3989496 
C     3.3966165    1.7499595   -1.7691009 
H     1.9211768    1.3528506   -0.3587916 
C     3.5502109    3.1986806   -2.2002759 
O     4.7573270    3.8427532   -1.9652024 
O     2.5715277    3.8698077   -2.9338065 
H     1.7575736    3.2901374   -3.0801773 
C     4.1651228    0.7508162   -2.6950267 
H     3.9845042    1.7239957   -0.8201756 
C     3.9106715    0.8238623   -4.2049093 
H     4.0069316   -0.2728735   -2.3018173 
H     5.2544598    0.9345664   -2.5603115 
C     3.7628997   -0.2282671   -5.0416606 
C     3.7110599   -1.5630618   -4.7763161 
C     3.5905422   -2.4332583   -5.8192790 
C     3.5388382   -1.9695006   -7.1027422 
C     3.6090348   -0.6326754   -7.3515434 
C     3.7173461    0.2098256   -6.3029706 
H     3.7487204   -1.9468628   -3.7627998 
H     3.5347247   -3.5021723   -5.6272484 
H     3.4465852   -2.6701089   -7.9291860 
H     3.5852528   -0.2489410   -8.3661996 
N     3.8632289    1.6176941   -6.3604148 
C     4.0153537    1.9339776   -4.9707805 
H     3.8730565    2.2528552   -7.1924304 
H     4.2882153    2.9264067   -4.6215291 
