48
Energy =
C    -3.5092541    0.4649628   -0.7074756 
C    -2.2064433    0.5308585   -0.3340476 
C    -4.2615920    1.5961855   -0.7660155 
C    -3.7032542    2.7871734   -0.4514878 
C    -2.4005547    2.8592179   -0.0776252 
C    -1.6447417    1.7289823   -0.0121705 
H    -1.6165964   -0.3812868   -0.2994643 
H    -4.3133704    3.6822177   -0.5050760 
H    -1.9687317    3.8264781    0.1670116 
H    -3.9466226   -0.4945169   -0.9611991 
C    -0.1881461    1.8118741    0.3871073 
C     0.7099084    2.2671911   -0.7869426 
H     0.1685444    0.8320954    0.7760870 
H    -0.0915604    2.5299354    1.2332302 
C     2.1084607    2.6032171   -0.3006976 
O    -5.6070157    1.5631048   -1.1469027 
H    -5.9493453    0.6344351   -1.3677429 
O     2.3887128    3.9252777    0.0263169 
N     0.7378597    1.2478824   -1.8508538 
H     0.3136049    3.2237632   -1.2060557 
H     0.9304247    0.3037438   -1.4399911 
H    -0.2001533    1.1990557   -2.3149360 
N     2.9611941    1.5698191    0.2241769 
C     4.2478669    1.4687322   -0.5080474 
H     3.1453718    1.8359074    1.2190279 
C     5.0809585    2.7625386   -0.4816249 
O     5.0044097    3.6709040   -1.5319098 
O     5.9163035    3.0590502    0.5986197 
H     5.8589480    2.3648094    1.3280314 
C     3.9983314    0.9182902   -1.9328900 
H     4.8641194    0.7066682    0.0193308 
C     5.2843553    0.5114378   -2.6230453 
H     3.4324803    1.6565984   -2.5416553 
H     3.3463242    0.0205689   -1.8625451 
C     5.9147609    1.1482220   -3.6258025 
C     5.5820884    2.2865365   -4.2889738 
C     6.4073695    2.7241734   -5.2826798 
C     7.5388239    2.0254316   -5.5994139 
C     7.8524779    0.8842578   -4.9236554 
C     7.0214081    0.4721076   -3.9433084 
H     4.6879200    2.8498520   -4.0418922 
H     6.1647143    3.6363696   -5.8225754 
H     8.1919248    2.3825951   -6.3916395 
H     8.7465776    0.3184294   -5.1620476 
N     7.1658525   -0.6819437   -3.1279956 
C     5.9998378   -0.5815647   -2.3023090 
H     7.9189340   -1.4072968   -3.1324055 
H     5.7358988   -1.2955303   -1.5261814 
