48
Energy =
C    -2.7273931    6.0217598   -1.4077898 
C    -2.5542045    4.8089852   -1.9906575 
C    -2.0596456    6.3319430   -0.2668636 
C    -1.2226959    5.4261086    0.2824269 
C    -1.0463641    4.2109963   -0.2941387 
C    -1.7033871    3.8906095   -1.4481521 
H    -3.1032836    4.5800306   -2.9007013 
H    -0.6943537    5.6868466    1.1924061 
H    -0.3680266    3.5215079    0.1821048 
H    -3.4040295    6.7414161   -1.8561698 
C    -1.5815762    2.5320456   -2.1345711 
C    -0.3192932    1.6691718   -1.8448259 
H    -1.6026046    2.7046708   -3.2352240 
H    -2.4926902    1.9389182   -1.9032691 
C     1.0065019    2.3881650   -2.1106607 
O    -2.2201339    7.5695238    0.3644304 
H    -2.8434274    8.2027211   -0.1246905 
O     0.9976383    3.6358909   -2.7228807 
N    -0.3844680    1.0176137   -0.5163621 
H    -0.3342299    0.8470034   -2.5950708 
H     0.3300646    1.4002216    0.1461826 
H    -1.3238670    1.1269847   -0.0661712 
N     2.2458267    1.6988005   -1.8306835 
C     3.5844034    2.3424275   -1.8790507 
H     2.1826328    0.6596740   -1.7417396 
C     3.6511437    3.7611154   -2.4712211 
O     3.6797147    3.9554071   -3.8473673 
O     3.7270641    4.8870608   -1.6446757 
H     3.5406312    4.6681773   -0.6781811 
C     4.6122228    1.3727286   -2.5195199 
H     3.9150751    2.4546815   -0.8245695 
C     4.3147161    1.0193690   -3.9671851 
H     4.6340801    0.4299872   -1.9292156 
H     5.6333525    1.8004080   -2.4280393 
C     4.9232270    1.5028215   -5.0660074 
C     5.9132605    2.4266040   -5.1844030 
C     6.3658391    2.7383495   -6.4328246 
C     5.8334947    2.1264706   -7.5332117 
C     4.8436229    1.2005390   -7.3920886 
C     4.4096351    0.9118915   -6.1471826 
H     6.3293417    2.9266671   -4.3161646 
H     7.1488830    3.4829321   -6.5533544 
H     6.1974800    2.3822717   -8.5249784 
H     4.4101351    0.7059564   -8.2545766 
N     3.4048692   -0.0245712   -5.7880832 
C     3.4086645    0.1045743   -4.3612624 
H     2.8278330   -0.6455993   -6.4000395 
H     2.7842123   -0.4860200   -3.6984186 
