48
Energy =
C    -2.2570658    1.4225832   -0.6833652 
C    -1.1735937    1.2690178   -1.4853666 
C    -3.2863494    2.2215986   -1.0713021 
C    -3.2209867    2.8669035   -2.2579773 
C    -2.1381585    2.7195534   -3.0628119 
C    -1.1098355    1.9110765   -2.6849920 
H    -0.3530783    0.6387794   -1.1549284 
H    -4.0456375    3.5074041   -2.5520449 
H    -2.1011017    3.2551505   -4.0078988 
H    -2.2953758    0.9091869    0.2711951 
C     0.1090568    1.7659621   -3.5715815 
C     1.1985530    2.8045082   -3.2167171 
H    -0.1923756    1.8937674   -4.6348460 
H     0.5209472    0.7356013   -3.4977372 
C     1.8301317    2.5326467   -1.8664213 
O    -4.4205965    2.3969496   -0.2721325 
H    -4.3820279    1.9058419    0.6145514 
O     1.4409924    3.2857988   -0.7669435 
N     2.2181171    2.8420756   -4.2748753 
H     0.7377664    3.8181414   -3.1199442 
H     2.6075958    1.8845502   -4.4378871 
H     1.7952711    3.1733592   -5.1731370 
N     2.6306249    1.3665853   -1.6403198 
C     4.1076436    1.4853045   -1.5822420 
H     2.1462791    0.4443300   -1.6459759 
C     4.6601117    2.8644876   -1.9809440 
O     5.3900190    3.0111623   -3.1564112 
O     4.5284540    3.9720923   -1.1449970 
H     3.8656102    3.7957405   -0.4024767 
C     4.7511865    0.3577075   -2.4275263 
H     4.4220793    1.3480552   -0.5246371 
C     4.4233115   -1.0227475   -1.9007551 
H     5.8589750    0.4767639   -2.4314309 
H     4.4365170    0.4623030   -3.4873730 
C     3.4960099   -1.8733291   -2.3730903 
C     2.6415837   -1.7417074   -3.4218862 
C     1.7743910   -2.7609831   -3.6835555 
C     1.7722664   -3.8836950   -2.9030852 
C     2.6372938   -3.9936833   -1.8551529 
C     3.4868127   -2.9724702   -1.6169320 
H     2.6357972   -0.8514543   -4.0424334 
H     1.0819314   -2.6809990   -4.5180941 
H     1.0783250   -4.6923590   -3.1186887 
H     2.6467993   -4.8762742   -1.2245970 
N     4.4483651   -2.8813198   -0.5753583 
C     5.0075603   -1.5862704   -0.8290044 
H     4.6808728   -3.5724290    0.1744448 
H     5.7891619   -1.1261872   -0.2281339 
