48
Energy =
C    -3.0229169   -1.8315736    1.8276207 
C    -1.7822194   -1.6331859    1.3146916 
C    -4.1208265   -1.4158008    1.1412771 
C    -3.9686561   -0.8019465   -0.0541739 
C    -2.7303947   -0.6007357   -0.5719380 
C    -1.6287155   -1.0205524    0.1085654 
H    -0.9128957   -1.9662837    1.8769501 
H    -4.8519974   -0.4717002   -0.5896215 
H    -2.6297622   -0.0989606   -1.5305777 
H    -3.1344625   -2.3216895    2.7887424 
C    -0.2444675   -0.7849882   -0.4522620 
C     0.4365211    0.4445978    0.1908993 
H    -0.2839630   -0.6686220   -1.5566981 
H     0.3775025   -1.6911723   -0.2650302 
C     1.9143981    0.4773332   -0.1376413 
O    -5.4134490   -1.6050657    1.6410792 
H    -5.4422993   -2.0669877    2.5434200 
O     2.8287411    0.0714871    0.8300985 
N    -0.2304924    1.6937133   -0.2184818 
H     0.3972961    0.3504863    1.3033556 
H    -0.3546930    1.7257304   -1.2571842 
H    -1.1842110    1.7378600    0.2127230 
N     2.3698388    0.7636055   -1.4700963 
C     3.7652252    1.2094026   -1.6381600 
H     1.7162141    0.6693317   -2.2776341 
C     3.8236967    2.6123956   -2.2353400 
O     4.7650838    2.9097747   -3.2147225 
O     2.9976369    3.6373853   -1.7760206 
H     2.3783051    3.3153527   -1.0436330 
C     4.5250264    0.1752182   -2.5026905 
H     4.2781736    1.3072082   -0.6562096 
C     4.2958769   -1.2527286   -2.0481040 
H     5.6145726    0.3987350   -2.4906207 
H     4.1994837    0.2788420   -3.5625776 
C     4.7603863   -1.8386424   -0.9321697 
C     5.5406450   -1.3356313    0.0576283 
C     5.8718031   -2.1501651    1.1016858 
C     5.4250322   -3.4420886    1.1375927 
C     4.6407779   -3.9255072    0.1329363 
C     4.3249624   -3.0992421   -0.8862079 
H     5.8771071   -0.3053934    0.0377773 
H     6.4833612   -1.7673593    1.9157863 
H     5.6879983   -4.0841608    1.9747522 
H     4.2725526   -4.9456837    0.1487095 
N     3.5216931   -3.4024326   -2.0175889 
C     3.5491368   -2.1510388   -2.7155274 
H     3.0418899   -4.2971892   -2.2684001 
H     3.0302679   -1.9598280   -3.6519110 
