48
Energy =
C     3.2071626    5.8684932    1.9400168 
C     3.3399044    4.5316930    1.7484001 
C     2.7244744    6.3449346    3.1191181 
C     2.3789420    5.4782391    4.0989854 
C     2.5120549    4.1402969    3.9127013 
C     2.9955800    3.6616793    2.7380657 
H     3.7284287    4.1646517    0.8021044 
H     1.9950598    5.8704317    5.0342614 
H     2.2299861    3.4560805    4.7090402 
H     3.4893816    6.5542429    1.1480678 
C     3.1228605    2.1725149    2.5465658 
C     1.9415011    1.5941494    1.7098206 
H     4.0165241    1.6908131    2.0940523 
H     4.2127224    2.1013517    2.3231254 
C     2.3817062    0.7442607    0.5201594 
O     2.5725484    7.7161360    3.3491858 
H     2.8656370    8.2986986    2.5721927 
O     2.2897382   -0.6442907    0.5505531 
N     1.0535550    0.8447416    2.6084821 
H     1.3445825    2.4188041    1.2538591 
H     1.5838541    0.0474430    3.0354101 
H     0.7467625    1.4656172    3.3938691 
N     3.0315696    1.3701297   -0.5923214 
C     4.4447138    1.0258181   -0.8339052 
H     2.4829084    1.9966292   -1.2236493 
C     5.3093571    2.2624430   -0.6210945 
O     5.0280645    3.4214460   -1.3346954 
O     6.3534102    2.2855237    0.3047931 
H     6.5571009    1.3734372    0.6855243 
C     4.5993103    0.4604527   -2.2742630 
H     4.7576953    0.3109494   -0.0858505 
C     5.1281598   -0.9526873   -2.5720516 
H     5.2271199    1.1622863   -2.8712079 
H     3.6037586    0.5165401   -2.7689999 
C     5.6026550   -1.9979588   -1.8237447 
C     5.7896336   -2.1785756   -0.4797109 
C     6.2924512   -3.3632102   -0.0286188 
C     6.6094763   -4.3584566   -0.9005922 
C     6.4266169   -4.1781815   -2.2323162 
C     5.9269346   -3.0008857   -2.6615436 
H     5.5684822   -1.4517808    0.2699591 
H     6.4399773   -3.5162861    1.0384151 
H     7.0088255   -5.2996511   -0.5299166 
H     6.6743377   -4.9611229   -2.9416004 
N     5.6817301   -2.6588448   -4.0105022 
C     5.1743492   -1.3364970   -3.8657267 
H     5.8329986   -3.2228858   -4.8787584 
H     4.8654264   -0.7185301   -4.7075654 
