48
Energy =
C    -4.1939337    2.3348335   -2.5920725 
C    -2.8536728    2.1864436   -2.7461234 
C    -5.0339329    1.3058951   -2.8841972 
C    -4.5256056    0.1339461   -3.3282485 
C    -3.1864889   -0.0199845   -3.4842096 
C    -2.3419494    1.0083696   -3.1977955 
H    -2.1948405    3.0159234   -2.5030270 
H    -5.2049232   -0.6800879   -3.5556460 
H    -2.7964364   -0.9711566   -3.8378350 
H    -4.5919770    3.2776243   -2.2329541 
C    -0.8482661    0.8295700   -3.3530137 
C    -0.2301942    0.0570562   -2.1659067 
H    -0.3400995    1.8123740   -3.4710328 
H    -0.6477750    0.2744617   -4.2978289 
C     1.2160116   -0.3034587   -2.4587046 
O    -6.4197400    1.4256042   -2.7353084 
H    -6.7208992    2.3346845   -2.4019903 
O     1.4587766   -1.5906001   -2.9089624 
N    -0.3532751    0.8252224   -0.9126193 
H    -0.7588687   -0.9202296   -2.0525579 
H    -0.1302617    1.8347429   -1.0769824 
H    -1.3480464    0.7864365   -0.5857858 
N     2.1943203    0.7566327   -2.5656906 
C     3.6334145    0.5471524   -2.9143837 
H     2.1507071    1.2504329   -1.6450007 
C     4.0462013    1.6199872   -3.9203896 
O     4.2287956    1.2956526   -5.2602487 
O     4.2486213    2.9424248   -3.5244640 
H     3.9700275    3.0949940   -2.5673018 
C     4.0760725   -0.8683591   -3.4095217 
H     4.2439353    0.7802920   -2.0139123 
C     4.4681489   -1.8054732   -2.2772056 
H     4.9882208   -0.7736573   -4.0402447 
H     3.3411044   -1.3053481   -4.1162622 
C     5.5572207   -1.6883822   -1.4952417 
C     6.5399636   -0.7486623   -1.5046229 
C     7.5592250   -0.8659714   -0.6061599 
C     7.5882643   -1.9128600    0.2725301 
C     6.6006681   -2.8519029    0.2545292 
C     5.6006456   -2.7115974   -0.6404501 
H     6.5339166    0.0750947   -2.2127539 
H     8.3569964   -0.1266946   -0.5931117 
H     8.4064083   -2.0018389    0.9830740 
H     6.6150102   -3.6955585    0.9364174 
N     4.5051232   -3.5891510   -0.8434494 
C     3.8283929   -2.9390702   -1.9288717 
H     4.2621406   -4.4760144   -0.3449893 
H     2.9486610   -3.3448985   -2.4225951 
