48
Energy =
C    -2.7250792    2.2342945   -0.3087314 
C    -2.0085869    2.7336612   -1.3471576 
C    -2.5213322    0.9572250    0.1103404 
C    -1.6000864    0.1883675   -0.5129859 
C    -0.8792778    0.6827449   -1.5509996 
C    -1.0766545    1.9622741   -1.9738853 
H    -2.1840988    3.7558567   -1.6703557 
H    -1.4474238   -0.8288960   -0.1688265 
H    -0.1474822    0.0442842   -2.0371952 
H    -3.4611500    2.8589286    0.1856684 
C    -0.2712517    2.5215647   -3.1294270 
C     0.6884191    3.6545838   -2.6950430 
H    -0.9770499    2.9108334   -3.8952880 
H     0.3097959    1.7184808   -3.6330502 
C     1.6142910    3.2536525   -1.5579837 
O    -3.2464003    0.4094917    1.1734138 
H    -3.8991821    1.0548013    1.6050332 
O     1.4821608    3.8761692   -0.3237558 
N     1.4469486    4.1349015   -3.8586646 
H     0.0954852    4.5073710   -2.2869076 
H     2.0215044    3.3600218   -4.2697183 
H     0.7970673    4.4690949   -4.6071195 
N     2.5127523    2.1413781   -1.6634789 
C     3.9401715    2.3825471   -1.9846921 
H     2.0845388    1.1960690   -1.7244519 
C     4.2803589    3.8179499   -2.4197916 
O     4.6297178    4.0990565   -3.7321763 
O     4.3160475    4.8640920   -1.4994178 
H     3.8962459    4.5976608   -0.6191435 
C     4.4945527    1.2747796   -2.9325277 
H     4.5031463    2.2672637   -1.0327722 
C     3.6659307    1.0153558   -4.1810808 
H     4.5502684    0.3228058   -2.3599126 
H     5.5439041    1.5104430   -3.2119498 
C     3.9030048    1.4462967   -5.4357210 
C     4.9213380    2.1977166   -5.9302472 
C     4.9349700    2.4821228   -7.2643600 
C     3.9508497    2.0033698   -8.0824155 
C     2.9498167    1.2336457   -7.5717389 
C     2.9534777    0.9740791   -6.2476214 
H     5.7153882    2.5693551   -5.2924325 
H     5.7348903    3.0910700   -7.6784135 
H     3.9708766    2.2303856   -9.1452018 
H     2.1699329    0.8312935   -8.2089129 
N     2.0310198    0.1646366   -5.5366094 
C     2.5772326    0.2236297   -4.2151629 
H     1.1791006   -0.3294496   -5.8891020 
H     2.1943421   -0.3524399   -3.3779955 
