48
 energy: -9.062167020826 gnorm: 0.000588692063 xtb: 6.6.0 (2ccbbd7)
C            2.02268307063402       -1.01526568042786        4.52812841140913
C            2.48209038352356       -1.40897843045405        3.29299570235640
C            0.80672519726133       -0.34239052350714        4.65375508105737
C            0.07756865901152       -0.07759768354651        3.49536370062813
C            0.54622603051629       -0.47411720563449        2.26649265649448
C            1.74939553932469       -1.15219894693483        2.14257073014148
H            3.42262096187658       -1.92616035919223        3.21095453769262
H           -0.85602814335175        0.44813564610209        3.58795883033199
H           -0.01105853469388       -0.24488781088313        1.37513790135452
H            2.59794985930459       -1.22295998247996        5.41236175229210
C            2.25818691707223       -1.57725429887148        0.79720805662834
C            2.75149264660771       -0.41025231685924       -0.07872550517054
H            1.46205096491449       -2.11007199683529        0.26667707886779
H            3.06690467795501       -2.30212183630537        0.93722839357812
C            1.59699949280499        0.35378578515680       -0.70429625734745
O            0.31608937744893        0.06447833742497        5.88004407551923
H            0.93784449310188       -0.19420905787314        6.59429983009897
O            0.45814000456209       -0.04629485441658       -0.55902096495044
N            3.60982360986264        0.49033901778779        0.67850530604591
H            3.34909006425870       -0.81708110118595       -0.90977778328615
H            3.05542435102346        0.95966319431056        1.38102557206523
H            4.33123044211444       -0.02972576291980        1.16062542430629
N            1.85483830092802        1.49486977155960       -1.43281826790668
C            3.19572263200482        1.93247350850591       -1.83760069764066
H            1.07084980765612        2.02645265218441       -1.80301467429110
C            3.21314653152143        3.38930419839249       -2.19256197153736
O            4.28443422520384        4.13205044009940       -1.78628064823949
O            2.17925886199315        3.90581178278754       -2.93985271413264
H            1.61820261292929        3.18457528882071       -3.30004955783827
C            3.75651716305889        1.07156146142990       -2.98712031365075
H            3.83584750754212        1.80499647525541       -0.95461676783023
C            5.20707922115619        0.73701389555463       -2.84570673572355
H            3.58812898468910        1.58014972846410       -3.94169371610820
H            3.18221805570008        0.14106667646080       -3.04658886729000
C            6.25121177356825        1.56628817640016       -2.33268680612492
C            6.28208734087350        2.86870417779841       -1.81560211415941
C            7.46772948358179        3.39099157360814       -1.39371949559027
C            8.65538684066890        2.64499035863314       -1.46810662147954
C            8.65768445108510        1.37187166539344       -1.96861785356531
C            7.44623951341424        0.82178789330660       -2.40727045361633
H            5.24496121022283        3.53028364261667       -1.77842557224157
H            7.49228082134468        4.39401636449591       -1.00146313676600
H            9.57770173551942        3.08560837750481       -1.12765023169648
H            9.56095928585067        0.79223126281460       -2.03321466325459
N            7.13620095473611       -0.41000259184030       -2.95381498527779
C            5.78993766816886       -0.44919319475517       -3.21879109503054
H            7.81440271814871       -1.15123601613138       -3.13919504125777
H            5.27375572971775       -1.28796573875704       -3.65695360635651
