48
Energy =
C    -2.4770203   -0.9110422   -2.3248510 
C    -1.2668461   -0.3228865   -2.1530859 
C    -3.6143680   -0.2376229   -2.0058199 
C    -3.5309683    1.0203505   -1.5159853 
C    -2.3219344    1.6126298   -1.3423990 
C    -1.1806907    0.9436054   -1.6644888 
H    -0.3675099   -0.8707444   -2.4076054 
H    -4.4456723    1.5455632   -1.2633206 
H    -2.2767036    2.6218568   -0.9419866 
H    -2.5318816   -1.9209628   -2.7164689 
C     0.1735602    1.5873542   -1.4585226 
C     0.9159192    1.0321788   -0.2145973 
H     0.0717419    2.6924999   -1.3694497 
H     0.7807176    1.3968521   -2.3709608 
C     2.2986908    1.6569990   -0.0257616 
O    -4.8780294   -0.8139053   -2.1693791 
H    -4.8563304   -1.7569976   -2.5413396 
O     2.8620883    1.7100419    1.2448278 
N     0.0957185    1.2178995    0.9950156 
H     1.1022471   -0.0552852   -0.3543497 
H    -0.1794041    2.2230826    1.0975591 
H    -0.7754386    0.6405337    0.9423561 
N     3.1155014    2.0365578   -1.1469034 
C     4.4444808    1.4013063   -1.2588861 
H     2.7087631    2.6284125   -1.9037182 
C     5.5075215    2.4137049   -1.6676510 
O     6.6599594    2.5278776   -0.9007932 
O     5.4005192    3.1817978   -2.8291357 
H     4.5437937    3.0012004   -3.3267200 
C     4.3915772    0.2252818   -2.2615153 
H     4.7948831    1.0415647   -0.2620294 
C     3.5106636   -0.9207097   -1.8010953 
H     5.4184784   -0.1785202   -2.4150163 
H     4.0506665    0.6147112   -3.2421044 
C     2.6138185   -1.5987132   -2.5416258 
C     2.2295507   -1.4222059   -3.8341615 
C     1.3012556   -2.2731958   -4.3585404 
C     0.7763493   -3.2787146   -3.5957946 
C     1.1760002   -3.4394802   -2.3030266 
C     2.0936798   -2.5841547   -1.8056788 
H     2.6447021   -0.6334603   -4.4523212 
H     0.9803453   -2.1539213   -5.3911331 
H     0.0407244   -3.9559804   -4.0233958 
H     0.7748450   -4.2366277   -1.6857610 
N     2.6528677   -2.5958735   -0.5017781 
C     3.5750349   -1.5027662   -0.5874079 
H     2.4496750   -3.2298271    0.3058975 
H     4.2433713   -1.2079514    0.2190857 
