48
Energy =
C    -1.9159534   -0.0738242   -1.3583190 
C    -1.0914643   -0.5583502   -2.3218616 
C    -2.4815443    1.1549260   -1.4979016 
C    -2.2140229    1.8928608   -2.5995738 
C    -1.3908969    1.4129864   -3.5660795 
C    -0.8324094    0.1789451   -3.4369868 
H    -0.6248184   -1.5344291   -2.1911166 
H    -2.6631975    2.8755052   -2.6946830 
H    -1.1776887    2.0260077   -4.4383788 
H    -2.1167070   -0.6680262   -0.4731678 
C     0.1140540   -0.3446565   -4.4953208 
C     1.5571948    0.1505077   -4.2629591 
H    -0.2338835   -0.0163916   -5.4993315 
H     0.1029591   -1.4580439   -4.5114043 
C     2.0945421   -0.2926657   -2.9096252 
O    -3.3355054    1.6825162   -0.5242913 
H    -3.4825631    1.0714212    0.2714288 
O     2.0137255   -1.6293475   -2.5308239 
N     2.4269779   -0.3204598   -5.3561423 
H     1.5574092    1.2661168   -4.2548049 
H     2.4186572   -1.3701032   -5.3846774 
H     2.0598641    0.0220477   -6.2757846 
N     2.4546104    0.6736367   -1.9144353 
C     3.7618725    1.3661025   -1.9686052 
H     1.7631622    0.8603165   -1.1544801 
C     3.5822712    2.8484782   -2.2890586 
O     2.7126603    3.2375839   -3.2997455 
O     4.3358815    3.8329937   -1.6494958 
H     4.9952263    3.4474482   -0.9898316 
C     4.7498222    0.6880139   -2.9524386 
H     4.1992092    1.3046515   -0.9475681 
C     6.1485543    1.2444681   -2.8082198 
H     4.3959540    0.8215268   -4.0023597 
H     4.7701786   -0.4105665   -2.7747061 
C     7.0786944    0.8556941   -1.9223352 
C     7.0302673   -0.1233628   -0.9826483 
C     8.1215853   -0.3105800   -0.1860759 
C     9.2296059    0.4771435   -0.3356856 
C     9.2525859    1.4580714   -1.2823995 
C     8.1622233    1.6209669   -2.0606415 
H     6.1492157   -0.7464058   -0.8574010 
H     8.1095727   -1.0889992    0.5732654 
H    10.0945149    0.3230957    0.3047577 
H    10.1205839    2.0961133   -1.4096914 
N     7.9722049    2.5896514   -3.0818497 
C     6.6381084    2.2826338   -3.5093168 
H     8.6291845    3.3256459   -3.4291470 
H     6.0849180    2.8462939   -4.2604353 
