48
Energy =
C     1.5820693    0.1107909    2.9208708 
C     1.3166649    1.0887048    2.0184175 
C     1.2387172   -1.1760406    2.6539300 
C     0.6206249   -1.4732454    1.4908412 
C     0.3534052   -0.5004410    0.5851038 
C     0.7264913    0.7902578    0.8250104 
H     1.5760532    2.1142019    2.2656248 
H     0.3373280   -2.5008401    1.2946202 
H    -0.1516373   -0.7763021   -0.3308109 
H     2.0632296    0.3626241    3.8599478 
C     0.4142547    1.9131833   -0.1612145 
C     0.5693135    1.5287345   -1.8191758 
H     0.9837772    2.8116537    0.1070511 
H    -0.6348958    2.2094887    0.0430062 
C     2.1248272    1.0278004   -2.9127971 
O     1.5040681   -2.2095257    3.5580998 
H     1.9644972   -1.9036367    4.4086039 
O     1.1965318    0.6508999   -1.9242895 
N    -0.9070775    1.2903230   -2.3001993 
H     0.5852040    2.6454776   -2.1503940 
H    -1.2880169    0.4438339   -1.8239370 
H    -1.5250168    2.0931598   -2.0397042 
N     2.6941210    3.8010342   -1.6629159 
C     3.6012768    2.5225484   -0.4275611 
H     1.8378814    4.2034357   -1.2182602 
C     5.0624899    2.8624587   -0.2623753 
O     5.9515270    1.8479331    0.0642548 
O     5.5327946    4.1697608   -0.3469210 
H     4.8014729    4.8053649   -0.6353488 
C     3.4299652    0.3216378   -1.0940934 
H     3.1774499    2.6242366    0.5871465 
C     2.4153674   -1.1437741   -2.5593465 
H     3.2518038   -0.1840617   -0.1227940 
H     4.4981982    0.0841031   -1.2814909 
C     1.1951902   -0.7417735   -3.8284555 
C     0.6600147    0.9502179   -4.2768557 
C     0.4340513    1.0780077   -5.5888185 
C     0.5261180   -0.0285918   -6.4076221 
C     0.9640277   -1.2937260   -6.0245193 
C     1.2974556   -1.6271723   -4.7477437 
H     2.6690806    2.2360327   -2.0030118 
H     0.2619750    2.0631340   -6.0127079 
H     0.3351886    0.1291132   -7.4670554 
H     1.1297766   -2.0357875   -6.7993789 
N     2.2126490   -2.6800157   -4.3327935 
C     2.8725839   -2.2957520   -3.0693751 
H     2.3995749   -3.5602488   -4.8690315 
H     3.7646092   -2.7898796   -2.6921684 
