48
Energy =
C     0.0490570   -1.1764306    1.9212230 
C    -0.1178218   -0.2720849    0.9230028 
C     0.1123301   -2.5050106    1.6370731 
C     0.0064493   -2.9196501    0.3543259 
C    -0.1646760   -2.0207633   -0.6465713 
C    -0.2260467   -0.6897111   -0.3685180 
H    -0.1608905    0.7865395    1.1657727 
H     0.0643965   -3.9799687    0.1369320 
H    -0.2377388   -2.3722753   -1.6724829 
H     0.1334842   -0.8346958    2.9470309 
C    -0.3940452    0.3144093   -1.4910909 
C     0.8796485    0.5396923   -2.3681403 
H    -0.7206686    1.2948492   -1.0782429 
H    -1.2493598   -0.0211733   -2.1187270 
C     2.1410141   -0.1623833   -1.8684932 
O     0.2865379   -3.4616274    2.6429666 
H     0.3484171   -3.0713335    3.5765898 
O     2.5885480   -1.3393396   -2.4630396 
N     0.5979010    0.1893013   -3.7695323 
H     1.1323184    1.6256076   -2.3395056 
H     0.3526476   -0.8282079   -3.8315343 
H    -0.2179097    0.7431704   -4.1212177 
N     2.9223546    0.4153287   -0.8141224 
C     4.1909842    1.0871062   -1.1554110 
H     2.5696086    0.3482216    0.1660939 
C     3.9804339    2.3544100   -1.9844290 
O     4.1231308    3.5905737   -1.3681015 
O     3.6524563    2.3245474   -3.3420287 
H     3.4589035    1.3924379   -3.6780647 
C     5.1778557    0.0816826   -1.7922980 
H     4.6472593    1.4424815   -0.2026177 
C     6.5687564    0.6640254   -1.9048367 
H     4.8272022   -0.2440237   -2.7961947 
H     5.1961031   -0.8500474   -1.1851638 
C     7.5357340    0.6251396   -0.9744442 
C     7.5396582    0.0476627    0.2546970 
C     8.6620793    0.1638492    1.0212409 
C     9.7489652    0.8510003    0.5553194 
C     9.7196028    1.4274191   -0.6799159 
C     8.5992421    1.2954587   -1.4205799 
H     6.6762001   -0.4926216    0.6306006 
H     8.6918270   -0.2897949    2.0092358 
H    10.6387689    0.9418277    1.1735432 
H    10.5700361    1.9820184   -1.0619373 
N     8.3563824    1.8305075   -2.7138134 
C     7.0140355    1.3838925   -2.9502522 
H     8.9892764    2.3932177   -3.3278666 
H     6.4251570    1.6351875   -3.8334330 
