48
 energy: -9.068039950750 gnorm: 0.000646442722 xtb: 6.6.0 (2ccbbd7)
C            2.54442490509311       -1.09550654852700        3.31870342731138
C            2.05584032336897       -0.31490846362365        2.29865284866398
C            1.82508081456263       -1.24464118191962        4.50411891128872
C            0.60479532576432       -0.58044344252946        4.62006913345027
C            0.12581310398407        0.19837922145149        3.59351691971826
C            0.84038781672779        0.34322511414133        2.41151440995277
H            2.60872295068898       -0.23056118858215        1.38084708521495
H            0.05015274930259       -0.69166056498690        5.53462416719829
H           -0.81489586135440        0.70994505471598        3.70457658812565
H            3.48530654098722       -1.60458527044009        3.20934325306815
C            0.31634727506619        1.23008035391604        1.31854223394674
C            0.31099439737935        0.61306057427490       -0.09557710804308
H            0.89905537487252        2.15688806908312        1.30479139669852
H           -0.70489665838265        1.52844244106825        1.57902316486279
C            1.67217842864304        0.70241822979923       -0.74649555935115
O            2.28376157672251       -2.02412803452970        5.54934930169396
H            3.14743780813532       -2.42676532408627        5.31316688869583
O            2.45880575216401       -0.20532368162723       -0.58123547519908
N           -0.12450856891475       -0.77568087415161       -0.10318142061742
H           -0.39064198261597        1.17559508371984       -0.73305244834560
H            0.68300925043431       -1.35564766001767        0.10438000295627
H           -0.82501320544968       -0.93977324886273        0.60990474487337
N            1.95810396553618        1.83269308117899       -1.48063923116101
C            3.31861005305401        2.12503906753631       -1.92683710492237
H            1.35412690412755        2.65354191065935       -1.41293842812234
C            3.31864415262822        3.37940774481970       -2.74958798320470
O            4.35341280041349        4.25942092118446       -2.61877664890913
O            2.27045549990791        3.56660244149625       -3.62001124538138
H            1.66703334991533        2.78706679593180       -3.58896040089958
C            3.94257466332836        0.94780680815931       -2.69963689060950
H            3.90881835995997        2.30066944223091       -1.01568803509734
C            5.41170003372910        0.75852784622534       -2.48365402817336
H            3.73505332876642        1.05954488983943       -3.76824237721332
H            3.43240100616699        0.02867783506637       -2.39154645348835
C            6.42557820141537        1.75167722205075       -2.31708945604677
C            6.40694056617519        3.15177681585775       -2.27286936237361
C            7.57225708852782        3.83189645473367       -2.08280791398342
C            8.79059195110039        3.15111328480196       -1.92738043343452
C            8.84270448036696        1.78466601398118       -1.96386657245033
C            7.65175155322022        1.07312128500987       -2.15981145928944
H            5.34022453821262        3.73918341967926       -2.43356322356740
H            7.55590466460475        4.90868263143529       -2.05476301118624
H            9.69588119741835        3.71596121428318       -1.77843819171048
H            9.76924354687323        1.25191362302851       -1.84648371441845
N            7.38961507857562       -0.28205383186669       -2.23540522144293
C            6.04279294072734       -0.46030613727578       -2.43011326029958
H            8.09458849495647       -1.01693542935189       -2.15311576776219
H            5.55694389045709       -1.41824076676896       -2.52335179306927
