48
Energy =
C     6.8643103    2.5336444    0.3389412 
C     5.7631620    2.5330109    1.1207349 
C     6.9369791    1.8538074   -0.8282681 
C     5.8699379    1.2083554   -1.3174097 
C     4.4489422    1.3496376   -0.6755163 
C     4.6147005    1.9261414    0.7475628 
H     5.8345227    2.9978927    2.1006167 
H     6.0018165    0.6709775   -2.2449236 
H     3.7336938    1.9090026   -1.5514713 
H     7.7503390    3.0421909    0.7039306 
C     3.5233237    1.6544923    1.7906849 
C     3.1066185    0.1407542    1.8921418 
H     2.6365306    2.2807728    1.5394975 
H     3.8586517    1.9925885    2.7958688 
C     2.0501805   -0.3622503    0.8736235 
O     8.1305391    1.7872562   -1.5569339 
H     8.8878343    2.3351561   -1.1623844 
O     0.8343852   -0.8075398    1.3798447 
N     4.2861375   -0.7394215    1.9411985 
H     2.5852314    0.0294576    2.8729123 
H     4.7424952   -0.7995004    1.0009951 
H     4.9964573   -0.3543405    2.6071403 
N     2.1254333   -0.1529614   -0.5650527 
C     3.4121028    0.2480142   -1.1911446 
H     1.2439481   -0.3145559   -1.1035022 
C     4.1571579    3.5664968   -1.8168017 
O     3.6441777    4.5421163   -0.9775221 
O     4.9552112    3.9342958   -2.8892042 
H     5.2561955    3.1174588   -3.3955443 
C     3.4159791   -0.4411969   -2.6003006 
H     3.2867758    1.1548906   -0.4869136 
C     3.0854756    0.5412883   -3.7016236 
H     2.7014825   -1.2938072   -2.6468003 
H     4.4058200   -0.9096217   -2.7549987 
C     3.8732215    0.9185314   -4.7241401 
C     5.1250429    0.5122945   -5.0654112 
C     5.7228537    1.0886691   -6.1474950 
C     5.0699872    2.0499434   -6.8672193 
C     3.8130496    2.4377221   -6.5120555 
C     3.2408895    1.8507853   -5.4404938 
H     5.6522992   -0.2518054   -4.5046076 
H     6.7260976    0.7847127   -6.4378632 
H     5.5553827    2.5094154   -7.7247817 
H     3.2826656    3.2033445   -7.0682667 
N     1.9583463    2.1248092   -4.8995592 
C     1.9344872    1.2326261   -3.7795520 
H     1.2268326    2.7914416   -5.2380358 
H     1.1133570    1.1622921   -3.0703839 
