48
Energy =
C     0.8714052   -1.6360483    4.0896832 
C     1.3692972   -0.5743042    3.4039483 
C    -0.4703159   -1.7697027    4.2615800 
C    -1.3054187   -0.8392277    3.7473150 
C    -0.8131622    0.2227389    3.0606861 
C     0.5301613    0.3619617    2.8818240 
H     2.4450034   -0.4773066    3.2746730 
H    -2.3738780   -0.9564232    3.8924472 
H    -1.5027373    0.9579828    2.6545036 
H     1.5480033   -2.3786833    4.4995410 
C     1.0770118    1.5453949    2.1042596 
C     1.3027299    1.2712863    0.5915932 
H     2.0317041    1.8911455    2.5616102 
H     0.3812636    2.4075374    2.2044957 
C     2.5449726    0.4469202    0.2815130 
O    -1.0151692   -2.8509742    4.9609095 
H    -0.3251933   -3.5045962    5.3145635 
O     3.4726250    0.1377365    1.2732223 
N     0.1029525    0.6899413   -0.0347613 
H     1.5006510    2.2558643    0.1063995 
H    -0.0863248   -0.2606837    0.3618526 
H    -0.7263950    1.2951388    0.1679445 
N     2.9206119    0.2333258   -1.0810668 
C     4.1975235    0.8307898   -1.5070536 
H     2.3132046   -0.3676782   -1.6811407 
C     4.0865669    2.3522024   -1.5813689 
O     3.7170040    2.9692680   -2.7722875 
O     4.2978263    3.1512456   -0.4568273 
H     4.4973377    2.5999474    0.3672522 
C     4.6236965    0.1994758   -2.8499481 
H     4.9839982    0.6020504   -0.7496436 
C     6.0341403    0.5954595   -3.2274541 
H     3.9127404    0.5070100   -3.6510352 
H     4.5588495   -0.9082389   -2.7807317 
C     7.1701983    0.0331531   -2.7865956 
C     7.3517618   -1.0137975   -1.9411060 
C     8.6281676   -1.3875982   -1.6382438 
C     9.6910166   -0.7152356   -2.1757872 
C     9.4837458    0.3364271   -3.0184990 
C     8.2119196    0.6850989   -3.3049540 
H     6.5091364   -1.5437974   -1.5065809 
H     8.8013479   -2.2219091   -0.9626933 
H    10.7052747   -1.0170481   -1.9268562 
H    10.3150796    0.8851544   -3.4478099 
N     7.7799562    1.7525372   -4.1364154 
C     6.3550046    1.6303181   -4.0241035 
H     8.3469509    2.4379184   -4.6861602 
H     5.6369188    2.3076935   -4.4865527 
