48
Energy =
C    -1.8414761    5.5510616   -1.1493867 
C    -1.6703955    4.2148580   -1.3144683 
C    -0.8001881    6.4032855   -1.3459113 
C     0.4060442    5.9113747   -1.7075682 
C     0.5802530    4.5776425   -1.8803675 
C    -0.4555156    3.7169027   -1.6792658 
H    -2.5121201    3.5478866   -1.1496371 
H     1.2333586    6.5974819   -1.8517994 
H     1.5598254    4.2036400   -2.1640029 
H    -2.8128181    5.9359249   -0.8581312 
C    -0.2625724    2.2217462   -1.8553818 
C     0.2494371    1.4895796   -0.5868531 
H     0.4435755    2.0395956   -2.6941239 
H    -1.2240977    1.7592653   -2.1681553 
C     1.7214558    1.7587066   -0.3064534 
O    -0.9445112    7.7853705   -1.1855954 
H    -1.8738374    8.0719399   -0.8988313 
O     2.1066817    2.8899168    0.0239586 
N    -0.5864119    1.7825182    0.5878920 
H     0.1722964    0.3974209   -0.7873255 
H    -0.4382288    2.7792988    0.8792146 
H    -1.5968689    1.6677426    0.3448550 
N     2.7122565    0.7584896   -0.5992065 
C     3.9462754    1.2882969   -1.2050270 
H     2.5206028   -0.2593523   -0.4586432 
C     4.0195745    2.8007579   -0.9965904 
O     5.0000855    3.5515340   -1.6367566 
O     3.1854437    3.3665697   -0.2734761 
H     2.9283810    2.9442393    0.5966781 
C     3.9793390    0.9190307   -2.7021539 
H     4.8306961    0.8601125   -0.6846652 
C     4.1036041   -0.5745219   -2.9046444 
H     4.8466372    1.4176559   -3.1925549 
H     3.0702397    1.3100881   -3.2066468 
C     3.1061126   -1.4543814   -3.0927650 
C     1.7660179   -1.2503553   -3.1785563 
C     0.9555842   -2.3314139   -3.3632549 
C     1.4897636   -3.5865578   -3.4581397 
C     2.8379307   -3.7681618   -3.3679099 
C     3.6188230   -2.6825173   -3.1861830 
H     1.3393630   -0.2572403   -3.0992518 
H    -0.1207419   -2.1950738   -3.4344612 
H     0.8372841   -4.4436771   -3.6044396 
H     3.2775421   -4.7573057   -3.4376448 
N     5.0329360   -2.6546341   -3.0540533 
C     5.2642487   -1.2522916   -2.8686656 
H     5.7169192   -3.4452062   -3.0828742 
H     6.2436641   -0.8067394   -2.7077935 
