48
Energy =
C    -0.4089106   -2.2742001    1.7125320 
C    -0.2786077   -0.9235258    1.6723960 
C     0.6836596   -3.0709651    1.5674499 
C     1.9010341   -2.5089811    1.3982165 
C     2.0356451   -1.1612292    1.3474518 
C     0.9437721   -0.3569915    1.4770540 
H    -1.1608047   -0.3004561    1.7882670 
H     2.7668049   -3.1521276    1.2952062 
H     3.0229570   -0.7362112    1.2001432 
H    -1.3901358   -2.7136260    1.8545775 
C     1.0884533    1.1499831    1.3815582 
C     0.7408766    1.7168921   -0.0229715 
H     2.1293502    1.4443823    1.6397454 
H     0.4526317    1.6325581    2.1553634 
C     1.4253036    0.9524137   -1.1528091 
O     0.5834217   -4.4670102    1.5831941 
H    -0.3598963   -4.8054599    1.7406816 
O     0.7220707    0.0143279   -1.9044586 
N    -0.7185075    1.7975358   -0.2114219 
H     1.1425294    2.7535596   -0.0912132 
H    -1.1112346    0.8370403   -0.3573331 
H    -1.1815623    2.2216500    0.6245256 
N     2.8468907    1.0346630   -1.3201916 
C     3.3948722    1.3722327   -2.6481025 
H     3.4671699    0.9037611   -0.4923971 
C     2.7791431    2.6324664   -3.2573968 
O     3.5288830    3.8024043   -3.2626062 
O     1.5068801    2.6605000   -3.8293733 
H     0.9963770    1.8012722   -3.6848503 
C     3.3480797    0.1469017   -3.5912387 
H     4.4672849    1.6380434   -2.5096094 
C     4.1523927   -1.0104743   -3.0317702 
H     3.7779311    0.4301122   -4.5779175 
H     2.2997176   -0.1541883   -3.7893791 
C     3.6919660   -2.1453876   -2.4700413 
C     2.4202447   -2.5885699   -2.2904158 
C     2.2296696   -3.7934176   -1.6784519 
C     3.2998860   -4.5331380   -1.2621672 
C     4.5678425   -4.0751375   -1.4569950 
C     4.7310951   -2.8807243   -2.0637787 
H     1.5639417   -2.0131624   -2.6202409 
H     1.2197670   -4.1637475   -1.5075811 
H     3.1365373   -5.4885768   -0.7670116 
H     5.4285096   -4.6514497   -1.1326631 
N     5.9607641   -2.2345002   -2.3565659 
C     5.4968698   -1.0314153   -2.9806983 
H     6.9401884   -2.5510400   -2.1649192 
H     6.1485414   -0.2406971   -3.3480618 
