48
Energy =
C     1.8001717   -4.9646833    2.0380548 
C     1.8252422   -3.6082645    2.0119740 
C     1.0625296   -5.6523926    1.1259151 
C     0.3541069   -4.9765733    0.1929467 
C     0.3756178   -3.6199495    0.1617882 
C     1.1099466   -2.9269311    1.0744982 
H     2.4241592   -3.0738696    2.7447532 
H    -0.2299066   -5.5371138   -0.5287852 
H    -0.1990931   -3.0947068   -0.5967211 
H     2.3729028   -5.4975451    2.7892740 
C     1.1492625   -1.4154478    1.0272777 
C     2.1012942   -0.8848562   -0.0734434 
H     1.4433563   -0.9937159    2.0147324 
H     0.1182314   -1.0369602    0.8417832 
C     1.9762663    0.6230030   -0.2542470 
O     1.0167834   -7.0503078    1.1235482 
H     1.5671421   -7.4817642    1.8580435 
O     1.2419988    1.3808031    0.6505161 
N     3.4958881   -1.2585808    0.2233963 
H     1.7978423   -1.3271315   -1.0504184 
H     3.7401324   -0.9757401    1.2028579 
H     3.6013830   -2.2986543    0.1616179 
N     2.3913213    1.2444379   -1.4761824 
C     3.8378560    1.3380075   -1.7418361 
H     1.6626789    1.5499500   -2.1613122 
C     4.2115829    2.7407515   -2.2141939 
O     3.4389960    3.3615576   -3.1899880 
O     5.3663615    3.3860006   -1.7676679 
H     5.8960980    2.8257163   -1.1174430 
C     4.2104540    0.2740463   -2.7938045 
H     4.4086931    1.1468151   -0.8031842 
C     5.7094948    0.1246273   -2.9262845 
H     3.7488744    0.5224325   -3.7753579 
H     3.7861176   -0.7081748   -2.4926589 
C     6.5197704    0.7722861   -3.7795740 
C     6.2255879    1.6822867   -4.7438346 
C     7.2506672    2.2063025   -5.4749434 
C     8.5397540    1.8179860   -5.2352825 
C     8.8119231    0.9044981   -4.2606141 
C     7.7807131    0.4002541   -3.5507378 
H     5.2049627    2.0031102   -4.9310808 
H     7.0406359    2.9429577   -6.2470224 
H     9.3511294    2.2444664   -5.8199071 
H     9.8293132    0.5908065   -4.0532238 
N     7.8489447   -0.5418513   -2.4892706 
C     6.4647641   -0.6593149   -2.1373136 
H     8.6836156   -1.0179266   -2.0766166 
H     6.0851626   -1.2841170   -1.3316333 
