48
Energy =
C     1.3207094   -0.0097142    3.8358429 
C     2.1377553    0.6224501    2.9557341 
C     0.1748172    0.5891784    4.2564131 
C    -0.1452067    1.8180619    3.7933393 
C     0.6670651    2.4541745    2.9127843 
C     1.8157275    1.8589407    2.4855667 
H     3.0504830    0.1311708    2.6356546 
H    -1.0612878    2.2853667    4.1364279 
H     0.3887538    3.4404879    2.5521814 
H     1.5864485   -0.9953859    4.2023731 
C     2.7176749    2.5614639    1.4903155 
C     2.4124714    2.1958785    0.0130270 
H     3.7820435    2.3326408    1.7245223 
H     2.6308896    3.6636649    1.6175772 
C     2.7388706    0.7389827   -0.3167920 
O    -0.6887760   -0.0338067    5.1631317 
H    -0.3829246   -0.9556202    5.4552011 
O     1.7104311   -0.1638222   -0.5620776 
N     1.0250770    2.5522011   -0.3429221 
H     3.0825700    2.7962376   -0.6387583 
H     0.3505741    1.9206327    0.1533421 
H     0.8147143    3.5346282   -0.0476599 
N     4.0696586    0.2128535   -0.1728916 
C     5.1714210    0.7061339   -1.0252082 
H     4.2412968   -0.4623055    0.6036513 
C     5.6550308    2.0828307   -0.5843804 
O     5.3991823    3.1987782   -1.3721383 
O     6.2908656    2.2652040    0.6416793 
H     6.4300968    1.3908901    1.1272061 
C     4.7967549    0.6493004   -2.5262002 
H     6.0479727    0.0364980   -0.8780596 
C     4.5362880   -0.7678283   -2.9952082 
H     5.6403403    1.0576153   -3.1273411 
H     3.9346094    1.3140286   -2.7379768 
C     3.3744604   -1.2905079   -3.4271725 
C     2.1476768   -0.7197729   -3.5552798 
C     1.1217803   -1.4831325   -4.0297491 
C     1.3334395   -2.7891579   -4.3730144 
C     2.5726085   -3.3407090   -4.2422881 
C     3.5707004   -2.5670798   -3.7662474 
H     1.9659354    0.3126268   -3.2773625 
H     0.1287667   -1.0510806   -4.1286515 
H     0.5098434   -3.3909744   -4.7486065 
H     2.7582686   -4.3749252   -4.5107422 
N     4.9242867   -2.9463876   -3.5653495 
C     5.4804200   -1.7236588   -3.0681847 
H     5.3866743   -3.8682391   -3.7373038 
H     6.5258531   -1.5911345   -2.8000107 
