48
Energy =
C     2.0114128   -4.3302699    0.1382555 
C     2.4860015   -3.2445737   -0.5223749 
C     2.5985861   -4.7368104    1.2954142 
C     3.6574355   -4.0516651    1.7844257 
C     4.1364950   -2.9645787    1.1279974 
C     3.5548686   -2.5569582   -0.0322932 
H     2.0018696   -2.9299101   -1.4434934 
H     4.1152658   -4.3847843    2.7095933 
H     4.9865293   -2.4254477    1.5389396 
H     1.1602312   -4.8712671   -0.2601988 
C     4.0800188   -1.3396994   -0.7568984 
C     3.6188593   -0.0180381   -0.1053132 
H     3.7544508   -1.3510530   -1.8152457 
H     5.1928945   -1.3806167   -0.7766001 
C     4.2853808    1.1723128   -0.7696385 
O     2.1343499   -5.8519485    2.0005101 
H     1.3349752   -6.3075064    1.5742046 
O     5.1926169    1.9451657   -0.0547113 
N     2.1520037    0.1067649   -0.1542768 
H     3.9548315    0.0079753    0.9590611 
H     1.7957452   -0.1315467   -1.1097135 
H     1.7231571   -0.5741183    0.5158679 
N     3.9875082    1.5291889   -2.1255082 
C     5.1038462    1.5185231   -3.0945463 
H     2.9882432    1.6629507   -2.3987321 
C     5.1980287    2.8471517   -3.8397945 
O     5.3754673    2.8698883   -5.2187268 
O     5.1572106    4.0607041   -3.1582853 
H     5.0659750    3.9135772   -2.1609824 
C     5.0045492    0.2814869   -4.0283634 
H     6.0810164    1.4494243   -2.5605751 
C     3.6130818    0.0020067   -4.5789556 
H     5.3665635   -0.5905789   -3.4479458 
H     5.7070837    0.3898934   -4.8864489 
C     3.0164317   -1.2015990   -4.6776927 
C     3.4669022   -2.4363935   -4.3259154 
C     2.6509118   -3.5098021   -4.5293046 
C     1.4141167   -3.3412109   -5.0855411 
C     0.9877103   -2.0983831   -5.4463895 
C     1.8106798   -1.0510198   -5.2304497 
H     4.4529574   -2.5848275   -3.8979869 
H     2.9895445   -4.5063684   -4.2542772 
H     0.7715551   -4.2027977   -5.2507403 
H     0.0141494   -1.9481623   -5.9010662 
N     1.5641312    0.3079261   -5.5530711 
C     2.7855843    0.9199786   -5.1175926 
H     0.7183947    0.7474202   -5.9850274 
H     3.0073028    1.9792246   -5.2307035 
