48
 energy: -9.073946925768 gnorm: 0.000649888047 xtb: 6.6.0 (2ccbbd7)
C           -2.55699790265737       -2.05869213041807        1.20216624654547
C           -1.40374671343476       -1.65945598086363        0.56851381612730
C           -3.73306058025540       -2.25672251404273        0.47790154908634
C           -3.70451044091002       -2.04054983142505       -0.89961162187737
C           -2.54759334497180       -1.64222731524315       -1.52584688029447
C           -1.37932071487246       -1.44910804034780       -0.80242347523724
H           -0.50350946310011       -1.50065724663397        1.13719919519003
H           -4.61139505852371       -2.19087863985983       -1.45754309070574
H           -2.54180112256671       -1.47169610299681       -2.58884892625810
H           -2.56436340024032       -2.21887620531354        2.26544695969626
C           -0.13364547313787       -0.96196822005571       -1.47347940867773
C            0.12200708682066        0.52991160133439       -1.24801704144525
H           -0.19512928210039       -1.14486313218917       -2.55052129860736
H            0.72591898254911       -1.54336531833048       -1.12426508383824
C            1.38401623611666        0.95236254297077       -1.95708218362970
O           -4.91032716459901       -2.65342351795916        1.08419139139100
H           -4.77174055620068       -2.75801246046499        2.05048059689114
O            1.39478814679400        0.90610151818922       -3.16913943984500
N           -0.97683842202753        1.35428922452122       -1.72351199158640
H            0.23828565674820        0.72012140725577       -0.17048124488780
H           -0.97214012848024        1.34419535140926       -2.73514029417373
H           -1.86522316137069        0.98301525422760       -1.41111414298228
N            2.45303207771774        1.38122528253762       -1.20177893950804
C            3.72584863783228        1.82569033003289       -1.78641810358589
H            2.33607145942377        1.57527855287540       -0.20578654053633
C            3.60461095196818        3.23236253505457       -2.29834579075815
O            4.60866425848951        4.11716928718930       -2.02685317335571
O            2.49505693125200        3.53337564326736       -3.04726824376994
H            1.98056312105247        2.69660205990574       -3.15623653456923
C            4.21064990806632        0.86113837981318       -2.88033114908750
H            4.47203664282482        1.82527763761718       -0.97776705878394
C            5.69534542701906        0.75870900206738       -3.05186618875458
H            3.74475851271919        1.13579455558301       -3.83217627722384
H            3.82016661946126       -0.13596300977353       -2.64853066088435
C            6.70854878823974        1.74779561287004       -2.84149582639969
C            6.69165769392462        3.08500062464322       -2.41941033608402
C            7.86241165746897        3.77576133504328       -2.32407966562236
C            9.08868109401633        3.17021400769075       -2.64058163210952
C            9.14150032730645        1.86963554438222       -3.05991806066255
C            7.94468950663180        1.14884724903282       -3.16440640361462
H            5.61935551926861        3.63524713138817       -2.18770727054669
H            7.84308732087733        4.80524731325672       -2.00717287731140
H            9.99803342657631        3.74182665059253       -2.55623257653265
H           10.07333696749947        1.39578277375614       -3.31125981082046
N            7.68879670330426       -0.14871663650855       -3.56414286923657
C            6.33673422808581       -0.37048798045967       -3.49977235947681
H            8.39970366948767       -0.81524554295890       -3.87102829496412
H            5.85437123410861       -1.29810317263480       -3.76264878212996
