48
Energy =
C     6.9745292   -0.8989557    0.8014396 
C     6.0059703   -0.4709297    1.6498146 
C     6.6911777   -1.8366985   -0.1417720 
C     5.4412915   -2.3460843   -0.2241744 
C     4.4687841   -1.9215217    0.6210384 
C     4.7460613   -0.9802869    1.5651434 
H     6.2433322    0.2914143    2.3875849 
H     5.2274812   -3.0917266   -0.9821380 
H     3.4642104   -2.3272136    0.5249526 
H     7.9733495   -0.4816175    0.8741425 
C     3.6483892   -0.4493402    2.4608062 
C     3.0594209    0.8713245    1.9142251 
H     4.0587304   -0.2824249    3.4810089 
H     2.8366344   -1.2043466    2.5697328 
C     2.4510318    0.6914488    0.5317028 
O     7.6608109   -2.2866809   -1.0426137 
H     8.5754482   -1.8696987   -0.9045692 
O     1.4821807   -0.2831182    0.3089060 
N     2.0641787    1.4029277    2.8579270 
H     3.8803570    1.6190750    1.8063523 
H     1.2853721    0.7108423    2.9815666 
H     2.5048237    1.5562046    3.7954585 
N     2.7840985    1.5887624   -0.5302276 
C     3.9755932    1.2613524   -1.3344836 
H     2.2132584    2.4559751   -0.6580477 
C     4.6350691    2.5058660   -1.9239754 
O     3.8941073    3.6641818   -2.1276084 
O     5.9699477    2.4878467   -2.3328645 
H     6.4129949    1.5996859   -2.1459301 
C     3.5964101    0.2403564   -2.4259889 
H     4.7447427    0.7959073   -0.6817805 
C     2.5077879    0.7534275   -3.3456883 
H     3.2399438   -0.6922164   -1.9353462 
H     4.4954588   -0.0451835   -3.0139161 
C     2.6662697    1.4502596   -4.4830674 
C     3.8017346    1.8534279   -5.1098908 
C     3.6858495    2.5673343   -6.2662722 
C     2.4515126    2.8633595   -6.7748398 
C     1.3251044    2.4491052   -6.1283575 
C     1.4655671    1.7448765   -4.9856966 
H     4.7841178    1.6318706   -4.7036270 
H     4.5806527    2.9102422   -6.7804497 
H     2.3678658    3.4375937   -7.6941372 
H     0.3382775    2.6809363   -6.5142280 
N     0.4280067    1.2341447   -4.1605174 
C     1.1899143    0.6125055   -3.1164451 
H    -0.6089251    1.2912029   -4.2847909 
H     0.7593484    0.1195795   -2.2456064 
