48
 energy: -9.171152985616 gnorm: 0.000935087551 xtb: 6.6.0 (2ccbbd7)
C           -3.25733205415191        1.99665933529964        2.48971817895958
C           -1.93989141398380        2.25393491390534        2.19075507489449
C           -4.26662304885424        2.31142825354577        1.57900033621951
C           -3.90321570508227        2.89167589598822        0.36389183738206
C           -2.58402089347857        3.14607852907781        0.07247619713355
C           -1.58388076277114        2.83586975321554        0.98215564730270
H           -1.16911636098798        2.00154929088187        2.89868252130039
H           -4.68047207070551        3.13243604633809       -0.33911574879982
H           -2.31544388967388        3.58918479311060       -0.87114980770485
H           -3.52224100148181        1.54745329624181        3.43011020457536
C           -0.14648682769804        3.07335735550473        0.63840254425120
C            0.42039139733195        2.02572591120146       -0.32602626483969
H            0.45806574820830        3.07890849854897        1.54977362988884
H           -0.02993660095361        4.07178965382000        0.20355963834286
C            1.82947578582390        2.34957645616534       -0.70432147220109
O           -5.59957736522309        2.06281286352129        1.84815433912516
H           -5.69223910646427        1.66225636512050        2.73980440751515
O            2.29042436493500        3.67088040160900       -0.58264689016050
N            0.32979795894202        0.67548536215546        0.21822712473762
H           -0.17572405686087        2.04128877374401       -1.25226745661408
H            0.93771460308166        0.59986354889921        1.02300575534879
H           -0.61331946367374        0.48708634840883        0.53240201780422
N            2.65213233077617        1.35300957478303       -1.19490759467719
C            3.93384147662401        1.67039486210876       -1.82467304997880
H            2.21080621568066        0.52077438567355       -1.58006550554994
C            3.81480345417732        3.00241750694308       -2.53291071386375
O            4.07147393409175        3.10551125327672       -3.72927059892540
O            3.39932681836758        4.06875911667638       -1.71243783518430
H            3.44150633727222        3.77136260811386       -0.59907719881041
C            4.42169704351168        0.54352476368009       -2.74735988463396
H            4.66141363285720        1.78998156150906       -1.00910813558490
C            5.87298406764114        0.63563060902778       -3.09004138937347
H            3.83005321946399        0.56478526156714       -3.66777027682828
H            4.22334155813372       -0.42480547752514       -2.27782206162062
C            6.89842817926394       -0.30501590888636       -2.77160690706339
C            6.89376828000888       -1.53493392592399       -2.09038513268123
C            8.07360539396564       -2.21274644011339       -1.95198788132960
C            9.27268943295346       -1.70133391640317       -2.47521832970613
C            9.30145248909985       -0.50703218515902       -3.14199238378236
C            8.10407882692584        0.20324503664863       -3.29601748717359
H            5.97459099846878       -1.92434718575812       -1.69041877155727
H            8.08633003626956       -3.15623523321761       -1.43181901366942
H           10.18460477063409       -2.26087074330889       -2.34779444360901
H           10.21476484002327       -0.10826223511485       -3.54571378909449
N            7.81790829646393        1.41010757559658       -3.91085816734843
C            6.47530416313090        1.65887132385353       -3.77631954812183
H            8.50391369854737        2.00892018688654       -4.37412145395870
H            5.95986702616016        2.53354990031700       -4.13699250317747
