48
Energy =
C    -4.5908840    1.3125076   -1.8095614 
C    -3.2632936    1.5602824   -1.6780505 
C    -5.0251496    0.3514201   -2.6679472 
C    -4.1261307   -0.3566597   -3.3886834 
C    -2.7970721   -0.1132927   -3.2612518 
C    -2.3576775    0.8513743   -2.4072987 
H    -2.9323222    2.3273390   -0.9829076 
H    -4.4854432   -1.1222321   -4.0676318 
H    -2.0896647   -0.6962738   -3.8457960 
H    -5.3036781    1.8837218   -1.2248050 
C    -0.8755527    1.1086000   -2.2511117 
C    -0.2028511    0.0681371   -1.3262714 
H    -0.6914183    2.1355158   -1.8634046 
H    -0.3977392    1.0757994   -3.2566885 
C     1.3100675    0.1985617   -1.3774818 
O    -6.3861161    0.0706009   -2.8268204 
H    -6.9946031    0.6443739   -2.2531802 
O     1.9917335   -0.7020897   -2.1767296 
N    -0.7093792    0.1850854    0.0548456 
H    -0.4154079   -0.9585326   -1.7128139 
H    -0.7826325    1.1905251    0.3386296 
H    -1.6782836   -0.2119092    0.1001214 
N     1.9348829    1.3819701   -0.8280035 
C     3.4139383    1.6114645   -0.8625600 
H     1.6616157    1.3370741    0.1807461 
C     3.6877662    3.1298627   -0.7511208 
O     4.8346447    3.6797744   -1.3136900 
O     2.8788186    3.9897680   -0.0034537 
H     2.0782907    3.5347866    0.3993403 
C     4.1533726    1.0223112   -2.1108685 
H     3.8757545    1.2491288    0.0590251 
C     4.6271466   -0.4391207   -2.1791338 
H     5.0813506    1.5969671   -2.3119316 
H     3.4942042    1.2188503   -2.9854559 
C     4.9081072   -1.3851680   -1.2371991 
C     4.8111910   -1.3870858    0.1253675 
C     5.1756177   -2.5052020    0.8156771 
C     5.6317285   -3.6070010    0.1577571 
C     5.7264685   -3.6004034   -1.1965588 
C     5.3598444   -2.4858810   -1.8625085 
H     4.4535226   -0.5606542    0.7008940 
H     5.0986600   -2.5199914    1.9005919 
H     5.9185993   -4.4941313    0.7170898 
H     6.0876267   -4.4693506   -1.7363877 
N     5.4065282   -2.3087828   -3.2651774 
C     4.9239453   -0.9720609   -3.3834432 
H     5.7201189   -2.9732189   -4.0095553 
H     4.8179763   -0.4540293   -4.3341340 
