48
 energy: -9.071575483559 gnorm: 0.000798951432 xtb: 6.6.0 (2ccbbd7)
C           -3.97159430466010        1.55142170367614        0.04664423151520
C           -2.73517760007838        1.87566376106992       -0.45990059710875
C           -4.09719486416690        1.03579624474674        1.33723440750919
C           -2.93856811668912        0.85919489526511        2.09328750614938
C           -1.70618587823217        1.18656359480913        1.58002587589969
C           -1.58616845935980        1.70479999438957        0.29863291181247
H           -2.64760874699537        2.26719875751028       -1.45902477376857
H           -3.03501938019757        0.46044198843037        3.08732349241205
H           -0.81948382750654        1.04160688357657        2.17311736311216
H           -4.85580481205434        1.69096895104279       -0.54931563678872
C           -0.24350650898502        2.02671509400977       -0.27821214029292
C            0.28093812848607        0.93381723202341       -1.21248973977918
H            0.47796816199217        2.18649642622298        0.52808904136583
H           -0.29545773400419        2.97797974545370       -0.81846869300285
C            1.56039129206646        1.37679422735178       -1.88537947324203
O           -5.32509374842260        0.69880716178311        1.87498551163274
H           -6.03831583040172        0.88113371499600        1.22543539707442
O            1.50860736069280        1.78311359576991       -3.02975659964205
N            0.44523525506068       -0.34942987159513       -0.54127237704630
H           -0.45316668186643        0.77763867084201       -2.01923871483341
H            1.14324041687897       -0.27542256418332        0.18635340180347
H           -0.42039019297166       -0.62853596210085       -0.09730791064985
N            2.72560695954237        1.34607275862634       -1.15347345965678
C            4.02479418779680        1.78726104863462       -1.68020500052088
H            2.69948227944349        1.17850257125498       -0.14639248137086
C            4.12398895290119        3.28492197406187       -1.63909810113799
O            5.28130075866562        3.85596260281062       -1.19510694695221
O            3.03802149597646        3.99257475676947       -2.09021275954081
H            2.40298970025929        3.33588703779281       -2.46952714531886
C            4.28184727760888        1.23719776439037       -3.09258551364061
H            4.79891102632720        1.38030702248237       -1.01236074372587
C            5.71578670167391        0.96134575992233       -3.42524580604882
H            3.85313875502188        1.92298365137218       -3.83034309588894
H            3.71346190059565        0.30679587115671       -3.20166984456841
C            6.89637744407665        1.62689176547853       -2.96542050745432
C            7.13141512962625        2.70220146948070       -2.09629251581133
C            8.41109621957487        3.10201696283747       -1.85259031400505
C            9.49991714076189        2.45309109975855       -2.45606106904341
C            9.30654200943740        1.40340788370065       -3.31107965055605
C            7.99560331986684        0.98395040843377       -3.57249495621363
H            6.18235673266350        3.30291690368681       -1.59940230711221
H            8.58697135577252        3.93343427602382       -1.19045693498119
H           10.50064762982948        2.79125226477276       -2.24402181443428
H           10.13155628387428        0.89988781141523       -3.78209771051160
N            7.49903927775746       -0.02254864453488       -4.37874774928261
C            6.13035661167566       -0.02485072779834       -4.28679070730540
H            8.07184119229917       -0.65365283260701       -4.94210724924782
H            5.48218558503420       -0.70916910593732       -4.81012493340367
