48
Energy =
C    -2.8822181    0.2873572   -4.7435847 
C    -2.3683048    1.0951486   -3.7777429 
C    -2.0723686   -0.5769656   -5.4177724 
C    -0.7529965   -0.6248383   -5.1224175 
C    -0.2479829    0.1835372   -4.1595318 
C    -1.0434384    1.0353690   -3.4732332 
H    -3.0235949    1.7869612   -3.2552225 
H    -0.1119192   -1.3117044   -5.6623557 
H     0.8759651    0.2206144   -3.8121675 
H    -3.9401354    0.3369875   -4.9777017 
C    -0.4214550    1.9546525   -2.4316485 
C     0.6669594    1.2637062   -1.5524999 
H    -1.2232822    2.3462076   -1.7682847 
H     0.0265266    2.8310731   -2.9490686 
C     1.9858797    0.9775330   -2.3133399 
O    -2.5689062   -1.4221646   -6.4150600 
H    -3.5647890   -1.3232782   -6.5789127 
O     1.9333205    0.2448214   -3.4975495 
N     0.8953731    2.0717895   -0.3418912 
H     0.2904626    0.2613930   -1.2384791 
H     1.1684887    3.0474221   -0.6129815 
H     0.0148807    2.1334038    0.2221934 
N     3.2334316    1.4927133   -1.7960093 
C     4.5884820    1.1593648   -2.3352207 
H     3.2293246    1.2772077   -0.7713027 
C     5.3999276    2.4395314   -2.4775421 
O     6.7308495    2.4415088   -2.0780028 
O     4.8842680    3.5764608   -3.0987562 
H     3.9066372    3.4556868   -3.3223699 
C     4.6858510    0.3434057   -3.6611532 
H     5.1344146    0.5896635   -1.5486142 
C     4.7007054   -1.1585309   -3.4295375 
H     5.6495267    0.5752784   -4.1693515 
H     3.9351105    0.6662436   -4.4084751 
C     5.7014143   -1.8628842   -2.8705408 
C     6.8980350   -1.4401781   -2.3828480 
C     7.7556307   -2.3695155   -1.8726679 
C     7.4145204   -3.6933980   -1.8642060 
C     6.2144846   -4.0964858   -2.3693502 
C     5.3811383   -3.1578144   -2.8646775 
H     7.1819747   -0.3908081   -2.3975426 
H     8.7176896   -2.0552293   -1.4741177 
H     8.1052465   -4.4281754   -1.4581457 
H     5.9324639   -5.1438981   -2.3786884 
N     4.1084613   -3.3686460   -3.4554939 
C     3.7409504   -2.0258743   -3.8033557 
H     3.5870225   -4.2633007   -3.6032834 
H     2.8296088   -1.7644711   -4.3335613 
