48
 energy: -8.936965575361 gnorm: 0.000815190373 xtb: 6.6.0 (2ccbbd7)
C            7.20997380701299        0.76373707348035        1.90615535200745
C            6.05530355339312        1.54315347573746        2.00453353059891
C            7.45318983783275       -0.05799115116471        0.77931338863614
C            6.57597290883909       -0.02194081147349       -0.26886385758218
C            5.42476526693790        0.90976028845431       -0.28847617093685
C            5.14735454661148        1.61550371706901        0.99395634737928
H            5.85804607983277        2.07206264738057        2.92123359507363
H            6.75723343754603       -0.67229491984254       -1.10281604887670
H            5.21800732784880        1.46178959899840       -1.39089185247441
H            7.90702801821867        0.73635105753719        2.72369890249216
C            3.81844882663490        2.27682367915329        1.18895117952452
C            2.59639729848485        1.32598760460540        1.02790190332283
H            3.72585503118576        3.11288726842933        0.48784931406825
H            3.80113188487805        2.73643797146199        2.18324460950884
C            1.87937595954987        1.51379851454390       -0.29696333300775
O            8.54510896071565       -0.90443102978181        0.72605133681349
H            9.08645148171237       -0.80641069244366        1.53866621126265
O            0.81550173894841        2.10501152758030       -0.30514034004272
N            2.89380312784181       -0.08594667803450        1.27363284844245
H            1.84589117289086        1.60152270310020        1.79022303872097
H            3.18779446036909       -0.57023950610378        0.43518235534768
H            3.61328458259599       -0.19234621149929        1.97748330542705
N            2.44488429293412        1.08843222012513       -1.49143343114436
C            3.90616261691515        1.28154931113970       -1.76500552725332
H            1.89983550369616        1.25688546124862       -2.33242594184689
C            4.03370912161650        2.78342797903478       -2.14867515057268
O            5.08685547189765        3.10287935145054       -2.65774562583340
O            3.00719687741338        3.63914914018297       -1.90866196193455
H            2.23478366829068        3.19938435518548       -1.47299461018480
C            4.20001181423006        0.40612538522544       -3.02460222308148
H            4.33014417996778        0.54082263505062       -0.75349045048668
C            4.24668444940282       -1.04192118669945       -2.67704957298342
H            5.13637267555142        0.71273847407395       -3.50233649928498
H            3.42255279240953        0.57724361333216       -3.77458180781711
C            5.35689262955438       -1.92733139403321       -2.81554778004017
C            6.63862716071819       -1.77712914441733       -3.37323672954635
C            7.50542525711845       -2.83287437889524       -3.31543888281546
C            7.13302258332565       -4.04801601161296       -2.71812486694810
C            5.89049665392228       -4.21758205505168       -2.17152768324823
C            4.98795881154702       -3.14755081321175       -2.21579418144435
H            6.92192161795054       -0.84523922618724       -3.82951313414332
H            8.49340586569268       -2.73262215079537       -3.73352627477999
H            7.84093182350941       -4.85986932634815       -2.69014473072732
H            5.59866521045320       -5.14385783644969       -1.71005826896047
N            3.69667889554059       -3.00451944826308       -1.73706215082225
C            3.25725771972839       -1.73822979495637       -2.02955589206955
H            3.16451516954554       -3.73951946479397       -1.26714358692238
H            2.29481863184380       -1.33783328415169       -1.75505922210331
