48
Energy =
C     1.7100151    4.6519807   -5.3121860 
C     2.4288883    3.9728863   -4.3835924 
C     0.5520566    5.2718867   -4.9605452 
C     0.1216194    5.2075973   -3.6799949 
C     0.8368012    4.5298375   -2.7466751 
C     1.9982268    3.9099591   -3.0932231 
H     3.3520401    3.4811193   -4.6811026 
H    -0.8041125    5.7057499   -3.4132303 
H     0.4715426    4.4860268   -1.7239164 
H     2.0643193    4.6965559   -6.3363293 
C     2.7921149    3.1376931   -2.0629952 
C     2.5700275    1.6091431   -2.1748337 
H     2.5480075    3.4789096   -1.0320465 
H     3.8753776    3.3710959   -2.2014141 
C     3.5460176    0.8588832   -1.2837767 
O    -0.2145234    5.9784864   -5.8929307 
H     0.1783677    5.9868759   -6.8280888 
O     3.6176466    1.1562812    0.0727338 
N     1.1826679    1.2546211   -1.8347904 
H     2.7833658    1.2835543   -3.2192278 
H     0.9435297    1.6250971   -0.8839227 
H     0.5245730    1.6850565   -2.5250868 
N     4.2547156   -0.2897945   -1.7712781 
C     5.3692347   -0.1212910   -2.7308876 
H     3.9330217   -1.2279412   -1.4429082 
C     5.7896501    1.3383899   -2.9400499 
O     5.4079112    2.0298919   -4.0827197 
O     6.4730394    2.0367608   -1.9476709 
H     6.5539957    1.4908582   -1.1001787 
C     4.9879981   -0.8401346   -4.0429962 
H     6.2639765   -0.6243616   -2.3023595 
C     6.1465430   -0.9214051   -5.0176823 
H     4.1123910   -0.3362846   -4.5013484 
H     4.6564312   -1.8758216   -3.8109864 
C     6.2580713   -0.3100518   -6.2107356 
C     5.3976178    0.5212051   -6.8560804 
C     5.7569077    1.0065699   -8.0784159 
C     6.9550889    0.6579005   -8.6360175 
C     7.8022869   -0.1792839   -7.9738331 
C     7.4258597   -0.6457455   -6.7644997 
H     4.4465579    0.8094655   -6.4209490 
H     5.0867740    1.6777729   -8.6090967 
H     7.2334845    1.0518967   -9.6100721 
H     8.7564794   -0.4659691   -8.4021795 
N     8.1553642   -1.5285788   -5.9239051 
C     7.2553523   -1.6567099   -4.8164153 
H     9.0914556   -1.9684293   -6.0783967 
H     7.4468538   -2.2695787   -3.9389827 
