48
Energy =
C    -2.0656206    2.7128270   -2.5009155 
C    -0.9284953    2.9823022   -1.8118258 
C    -3.0076975    1.8886815   -1.9692097 
C    -2.8041311    1.3396533   -0.7497747 
C    -1.6683691    1.6056734   -0.0558845 
C    -0.7243231    2.4321173   -0.5827686 
H    -0.1812908    3.6397954   -2.2507822 
H    -3.5620698    0.6828285   -0.3375002 
H    -1.5199065    1.1497171    0.9193846 
H    -2.2179845    3.1567909   -3.4784550 
C     0.5554777    2.7168961    0.1708914 
C     1.7497633    1.9102780   -0.3935943 
H     0.4428637    2.5098141    1.2575560 
H     0.7657673    3.8081327    0.0961620 
C     3.0970246    2.4154811    0.1148247 
O    -4.1897448    1.5882845   -2.6544976 
H    -4.2712943    2.0488078   -3.5540319 
O     3.1484476    3.6352217    0.7874644 
N     1.5952150    0.4775424   -0.0953114 
H     1.7880432    2.0543180   -1.5007758 
H     1.4862111    0.3421231    0.9381744 
H     0.7291010    0.1105552   -0.5550820 
N     4.2985794    1.9602889   -0.5468865 
C     4.9667668    2.9861945   -1.4015096 
H     4.0686070    1.0849480   -1.0714072 
C     4.1238705    4.2012628   -1.7671756 
O     3.7276032    4.2516225   -3.0761724 
O     3.6050765    5.0650587   -0.8214639 
H     3.3765553    4.3456731   -0.0219181 
C     5.5891973    2.3503509   -2.6878236 
H     5.8053338    3.4084943   -0.8052198 
C     4.5998303    1.7319913   -3.6928372 
H     6.3260596    1.5837919   -2.3614018 
H     6.1792122    3.1250807   -3.2256818 
C     3.6314798    2.3237209   -4.4615817 
C     3.1483085    3.6612464   -4.4957384 
C     2.0999993    3.8961004   -5.3516636 
C     1.5444225    2.9019582   -6.0996704 
C     2.0170175    1.6334951   -6.0237427 
C     3.0517029    1.3749294   -5.2045226 
H     3.4380281    4.8350589   -3.9432183 
H     1.6918683    4.9014782   -5.4306416 
H     0.7090484    3.1254629   -6.7590303 
H     1.5669998    0.8354757   -6.6054282 
N     3.6315010    0.1013062   -4.9718445 
C     4.6154181    0.4192213   -3.9863084 
H     3.4009912   -0.8219508   -5.4067031 
H     5.2880772   -0.3116585   -3.5427587 
