48
Energy =
C    -2.7840712   -2.5086422   -0.9398776 
C    -1.4837609   -2.1562632   -0.7755738 
C    -3.7612824   -1.8550785   -0.2560541 
C    -3.4295356   -0.8514973    0.5876156 
C    -2.1310271   -0.4950687    0.7557110 
C    -1.1488752   -1.1487843    0.0770891 
H    -0.7149671   -2.6846706   -1.3326983 
H    -4.2175127   -0.3362265    1.1256084 
H    -1.8836492    0.3163165    1.4355865 
H    -3.0403017   -3.3133251   -1.6204112 
C     0.2965799   -0.7386102    0.2516901 
C     0.6380690    0.5430653   -0.5435000 
H     0.9776339   -1.5652902   -0.0463869 
H     0.4860932   -0.5609583    1.3345233 
C     2.0095769    1.0664653   -0.1613044 
O    -5.1106671   -2.1932349   -0.4030196 
H    -5.2754427   -2.9550310   -1.0515549 
O     2.1235498    2.1626457    0.4055237 
N     0.5580842    0.3007988   -1.9934096 
H    -0.0831911    1.3500502   -0.2694059 
H     1.1390067   -0.5313909   -2.2468898 
H    -0.4326535    0.0933711   -2.2579289 
N     3.2078884    0.3796640   -0.5602950 
C     4.2596860    1.2848789   -1.0521042 
H     3.2917699   -0.6601935   -0.5242949 
C     4.0163224    2.7020614   -0.5109480 
O     4.8368763    3.7590504   -0.8921688 
O     3.0710825    2.9124928    0.2660517 
H     2.9102892    2.2778312    1.0197265 
C     4.2452297    1.2302785   -2.5937332 
H     5.2440738    0.9525025   -0.6566681 
C     5.5197499    1.7768942   -3.1990582 
H     3.3591772    1.7876341   -2.9757827 
H     4.1084942    0.1796838   -2.9296120 
C     6.6717324    1.1110165   -3.3743982 
C     6.9846811   -0.1776470   -3.0818991 
C     8.2475533   -0.6152753   -3.3540528 
C     9.1687041    0.2323122   -3.9050166 
C     8.8327023    1.5234235   -4.1862775 
C     7.5764340    1.9318165   -3.9103548 
H     6.2564991   -0.8499314   -2.6379436 
H     8.5242519   -1.6424173   -3.1288901 
H    10.1741200   -0.1231731   -4.1162649 
H     9.5528486    2.2104018   -4.6176916 
N     7.0312051    3.2277910   -4.1109666 
C     5.6965286    3.0434435   -3.6152635 
H     7.4781819    4.0807556   -4.5188850 
H     4.9507503    3.8338765   -3.5289403 
