48
Energy =
C     2.5024997   -3.1655862    1.7217432 
C     2.1125741   -2.2611261    0.7895464 
C     1.5784382   -3.7710602    2.5129458 
C     0.2697949   -3.4619327    2.3688892 
C    -0.1251336   -2.5563617    1.4380426 
C     0.7952187   -1.9550970    0.6341339 
H     2.8630651   -1.7763488    0.1750549 
H    -0.4570733   -3.9479105    3.0111008 
H    -1.1817744   -2.3197725    1.3434157 
H     3.5553084   -3.3998612    1.8345127 
C     0.3582850   -0.9440458   -0.4068080 
C     0.6481629    0.5095143    0.0350159 
H    -0.7305176   -1.0588105   -0.6049977 
H     0.8599226   -1.1600915   -1.3731635 
C     2.1199319    0.8712961   -0.1070641 
O     1.9449408   -4.7120491    3.4799989 
H     2.9445157   -4.8705375    3.5479735 
O     2.9155247    0.9111291    1.0351225 
N    -0.2103078    1.4431095   -0.7151332 
H     0.4257391    0.6163961    1.1256069 
H    -0.2007347    1.2215983   -1.7383093 
H    -1.2010488    1.3492382   -0.3877559 
N     2.7159162    1.0909383   -1.3998662 
C     4.1891999    1.1650245   -1.5001520 
H     2.1103293    1.0425388   -2.2477747 
C     4.6381917    2.6102816   -1.6827908 
O     5.2481344    3.0089552   -2.8675044 
O     4.4770016    3.5513884   -0.6683922 
H     3.9524386    3.1709330    0.1086389 
C     4.6772500    0.2563074   -2.6533885 
H     4.6864595    0.8313785   -0.5599802 
C     4.3931180   -1.2026357   -2.3769842 
H     5.7757578    0.3834123   -2.7902738 
H     4.2183264    0.5798274   -3.6125226 
C     3.3733196   -1.9375233   -2.8513256 
C     2.3749060   -1.5995749   -3.7088426 
C     1.4350354   -2.5401793   -4.0126459 
C     1.5049793   -3.7896840   -3.4620493 
C     2.5187810   -4.1086884   -2.6088284 
C     3.4396526   -3.1636769   -2.3283230 
H     2.3124383   -0.6094698   -4.1480590 
H     0.6259902   -2.2955270   -4.6970823 
H     0.7514063   -4.5337512   -3.7084371 
H     2.5893613   -5.0954724   -2.1636622 
N     4.5561061   -3.2869648   -1.4587848 
C     5.1179802   -1.9710920   -1.5446175 
H     4.8675233   -4.1109521   -0.8942480 
H     5.9991617   -1.6416575   -0.9974259 
