48
Energy =
C     1.3209298   -5.5813945    1.3290241 
C     1.5385460   -4.2680384    1.5916393 
C     0.4652206   -5.9476056    0.3377143 
C    -0.1673765   -4.9953183   -0.3847466 
C     0.0468084   -3.6801946   -0.1270399 
C     0.8997654   -3.3085288    0.8663761 
H     2.2297554   -3.9921076    2.3837358 
H    -0.8471254   -5.3009926   -1.1725245 
H    -0.4697519   -2.9296111   -0.7195196 
H     1.8344161   -6.3375359    1.9128783 
C     1.1528081   -1.8425677    1.1405796 
C     2.1450534   -1.2173136    0.1288623 
H     1.5268378   -1.6905862    2.1781946 
H     0.1820078   -1.2984826    1.0955498 
C     2.2302178    0.2967049    0.2748055 
O     0.2199183   -7.2920085    0.0398991 
H     0.7269000   -7.9435270    0.6290581 
O     1.6018426    0.9385905    1.3354025 
N     3.4790205   -1.8266099    0.2673338 
H     1.7638688   -1.3956087   -0.9029404 
H     3.7849691   -1.7987940    1.2698033 
H     3.4397218   -2.8326587   -0.0209743 
N     2.7031473    1.0976393   -0.8133815 
C     4.1516807    1.0657265   -1.1045043 
H     2.0018361    1.6533263   -1.3497547 
C     4.7910428    2.4525139   -1.1002857 
O     6.0606875    2.5964094   -0.5547103 
O     4.1973349    3.5689526   -1.6905861 
H     3.3223587    3.3407690   -2.1320225 
C     4.4080751    0.2856845   -2.4133911 
H     4.6936080    0.5263683   -0.2899627 
C     3.7212290    0.8896642   -3.6187800 
H     4.0532894   -0.7606280   -2.2802146 
H     5.5022442    0.2081711   -2.5988581 
C     4.2159385    1.8175169   -4.4538468 
C     5.4226062    2.4404004   -4.4498740 
C     5.6766227    3.3684617   -5.4165178 
C     4.7330197    3.6556371   -6.3637864 
C     3.5281564    3.0179688   -6.3478585 
C     3.3004428    2.1048900   -5.3804138 
H     6.1693144    2.2255018   -3.6907474 
H     6.6319361    3.8877344   -5.4279570 
H     4.9421747    4.3991958   -7.1285640 
H     2.7667281    3.2371604   -7.0883271 
N     2.1180274    1.3443067   -5.1787803 
C     2.4748790    0.5835886   -4.0180316 
H     1.2289342    1.3460064   -5.7288004 
H     1.8241324   -0.1381590   -3.5305017 
