48
 energy: -9.200269025112 gnorm: 0.000724837732 xtb: 6.6.0 (2ccbbd7)
C            4.21676877944427        3.31023775931243       -6.30765791922515
C            3.66617016788668        3.12233068201629       -5.06313226606185
C            3.41860016459505        3.25435359018008       -7.44987829759564
C            2.05391896167904        3.01626424358257       -7.28848943874404
C            1.51363569799508        2.82412788574710       -6.03915701366311
C            2.31101086677449        2.86015576893196       -4.90445002558787
H            4.29337801003273        3.17817470322975       -4.19069481561824
H            1.43621225645088        2.98326789601672       -8.16825134696755
H            0.45749197900918        2.65102576827723       -5.93843768308342
H            5.27052763528226        3.49822256397825       -6.41231375169144
C            1.74947822535916        2.58865255571091       -3.54425016555972
C            1.34475928891225        1.13229950630394       -3.28780140280620
H            0.92400173076979        3.26321851599807       -3.31334837248683
H            2.62928521670457        2.88215115365872       -2.71821369700890
C            1.48208022784398        0.78620913799105       -1.82015645325515
O            3.93982355777796        3.42628388620916       -8.71800502467144
H            4.90561316421270        3.59469274584200       -8.66387046480927
O            0.48584696822109        0.90793725694899       -1.13478846426814
N           -0.02698697608484        0.84911330153148       -3.69444451983470
H            1.98096457687954        0.45286998067393       -3.87010967375262
H           -0.65017141110038        1.15110508591679       -2.94955119883274
H           -0.27944559981562        1.33702544285484       -4.54359830012927
N            2.67768804483553        0.35112831871027       -1.26153074070975
C            4.04297674960425        0.73870422851677       -1.69155102389125
H            2.65227996977648        0.20319715579169       -0.25502271691884
C            4.30071610604544        2.18718298901414       -1.35928562141151
O            5.17753520263131        2.46538236909226       -0.56968051486555
O            3.51286280518572        3.17426452250122       -2.01212027425216
H            3.65145873002695        4.11716374542295       -1.63073574167878
C            4.39903871402520        0.39572385351481       -3.13962026160287
H            4.73588771187960        0.15947562808392       -1.05997024491042
C            5.82667501811972        0.64084339832548       -3.51173831866083
H            3.78445566977980        0.98896782550309       -3.81401966205662
H            4.14782250814811       -0.65135986807750       -3.33646965467677
C            6.42160656677435        0.27313433233960       -4.75469162077101
C            5.92775791473003       -0.40221755499353       -5.88395045944867
C            6.75732637344702       -0.57754575490610       -6.95665643469674
C            8.07661008450720       -0.09538373993272       -6.94211536461544
C            8.57675133230211        0.56848632065351       -5.85550858369372
C            7.74351577801464        0.75919756397607       -4.74619126092014
H            4.91466950613749       -0.76331981255717       -5.89225401830830
H            6.39429332159215       -1.09306621616153       -7.83019614565506
H            8.70341031261701       -0.25017006005295       -7.80461507368308
H            9.58340596221633        0.94597823382344       -5.83811885423006
N            7.94016299652595        1.40570902608143       -3.53894190354284
C            6.77919157703898        1.34118005583473       -2.81128486446174
H            8.80239704247711        1.87913670708181       -3.26287246917134
H            6.62941573627284        1.81722649399989       -1.85559211389396
