48
Energy =
C    -0.6763936    3.1207601   -5.8628370 
C    -1.0148204    2.8164914   -4.5844974 
C     0.4629533    2.6185944   -6.4056875 
C     1.2566448    1.8163093   -5.6643102 
C     0.9238673    1.5075047   -4.3856974 
C    -0.2163512    2.0121631   -3.8265472 
H    -1.9323323    3.2267825   -4.1701559 
H     2.1641880    1.4247894   -6.1089999 
H     1.5922809    0.8695518   -3.8264302 
H    -1.3212085    3.7656901   -6.4498231 
C    -0.6684013    1.6886266   -2.4050678 
C     0.3672197    1.0114504   -1.4667750 
H    -1.5658274    1.0380414   -2.4784132 
H    -0.9845883    2.6397532   -1.9212112 
C     1.6074679    1.8607890   -1.2269892 
O     0.8379224    2.9051733   -7.7228162 
H     0.2042193    3.5363700   -8.2005762 
O     1.6676345    3.0331254   -1.6229529 
N    -0.2721245    0.6813310   -0.1841077 
H     0.7136705    0.0610275   -1.9290641 
H    -0.6238626    1.5580732    0.2695338 
H    -1.0945155    0.0546736   -0.3469758 
N     2.7892385    1.2663191   -0.6691485 
C     4.0437714    1.7254159   -1.2882630 
H     2.7260968    0.5480096    0.0878051 
C     3.7997228    3.0421961   -2.0378500 
O     4.8208377    3.6506902   -2.7592778 
O     2.6884818    3.5907130   -1.9763106 
H     2.2381600    3.6623208   -1.0879546 
C     4.5627970    0.5894105   -2.1938114 
H     4.7836631    1.9470914   -0.4891964 
C     5.9598248    0.8458722   -2.7172843 
H     3.8525255    0.4197951   -3.0281399 
H     4.5780512   -0.3562767   -1.6084272 
C     6.3038813    1.2787701   -3.9421525 
C     5.5235538    1.6083330   -5.0042471 
C     6.1308589    2.0294437   -6.1502003 
C     7.4939993    2.1128095   -6.2188131 
C     8.2578183    1.7796228   -5.1397947 
C     7.6333015    1.3675991   -4.0163276 
H     4.4416070    1.5652752   -4.9473975 
H     5.5260394    2.3113798   -7.0092024 
H     7.9699427    2.4549273   -7.1343031 
H     9.3397185    1.8471168   -5.1755468 
N     8.2394248    0.9831402   -2.7898434 
C     7.0844906    0.6648542   -2.0024654 
H     9.2531308    0.9376925   -2.5373807 
H     7.1191063    0.3221090   -0.9712810 
