48
Energy =
C    -2.8225109   -0.8412652   -2.5935153 
C    -1.5367434   -0.5146413   -2.3071939 
C    -3.7339499    0.1342147   -2.8524363 
C    -3.3515775    1.4310914   -2.8222398 
C    -2.0671612    1.7634287   -2.5361875 
C    -1.1501707    0.7904072   -2.2805537 
H    -0.8190434   -1.3042768   -2.0993109 
H    -4.0886404    2.1993418   -3.0288677 
H    -1.7810716    2.8114502   -2.5120821 
H    -3.1198215   -1.8841792   -2.6134727 
C     0.2784500    1.1527792   -1.9421555 
C     0.5523632    1.0813397   -0.4209052 
H     0.5292515    2.1666262   -2.3271440 
H     0.9590570    0.4500758   -2.4736594 
C     2.0329921    1.2304188   -0.1225674 
O    -5.0668241   -0.1676238   -3.1497737 
H    -5.2730878   -1.1605531   -3.1532022 
O     2.7381140    0.1294349    0.3591899 
N    -0.2354949    2.0918067    0.3048915 
H     0.2777649    0.0665713   -0.0463082 
H    -0.1386248    3.0279899   -0.1531316 
H    -1.2495851    1.8333290    0.2707128 
N     2.7505868    2.4043407   -0.5455710 
C     4.1869793    2.2647524   -0.8486221 
H     2.2500680    3.3192356   -0.6228732 
C     4.9104246    3.5980172   -0.6710778 
O     5.3213991    4.3333562   -1.7784184 
O     5.1519814    4.1208022    0.5976711 
H     4.7021114    3.5720373    1.3165736 
C     4.3352318    1.6817632   -2.2716247 
H     4.6696665    1.5787476   -0.1136135 
C     5.7528393    1.2300094   -2.5466421 
H     4.0144277    2.4395421   -3.0217574 
H     3.6505831    0.8152144   -2.3965485 
C     6.3097850    0.0701693   -2.1649936 
C     5.7690800   -0.9705212   -1.4804647 
C     6.5622327   -2.0446308   -1.2026186 
C     7.8689971   -2.0614819   -1.6060392 
C     8.3910645   -1.0029008   -2.2887081 
C     7.5855863    0.0470254   -2.5535237 
H     4.7333365   -0.9566969   -1.1511320 
H     6.1534833   -2.8896078   -0.6531312 
H     8.4954790   -2.9201375   -1.3773524 
H     9.4272679   -0.9971726   -2.6096968 
N     7.9326112    1.2472691   -3.2293289 
C     6.6898142    1.9634677   -3.1739416 
H     8.8450587    1.5283248   -3.6566667 
H     6.5388792    2.9756545   -3.5510005 
