48
Energy =
C     5.2896143    7.4167387    1.2448136 
C     4.8397294    6.5590319    0.2939742 
C     4.4255332    7.9487645    2.1502262 
C     3.1151862    7.6181475    2.0977467 
C     2.6591080    6.7613728    1.1494350 
C     3.5194054    6.2295514    0.2389909 
H     5.5464390    6.1399682   -0.4198505 
H     2.4363295    8.0480260    2.8263327 
H     1.6021894    6.5059400    1.1273423 
H     6.3425930    7.6754040    1.2805090 
C     3.0147173    5.2600265   -0.8040457 
C     2.8247323    3.8319566   -0.2301608 
H     3.6948735    5.2388150   -1.6888069 
H     2.0505795    5.6308227   -1.2225652 
C     2.0464267    2.9569244   -1.2155034 
O     4.8572550    8.8335925    3.1434456 
H     5.8503734    9.0369452    3.1120461 
O     0.7311802    3.3261478   -1.4928897 
N     4.1208281    3.2543269    0.1754730 
H     2.1584486    3.8840683    0.6635435 
H     4.8734268    3.4968114   -0.5119203 
H     4.4111595    3.6694537    1.0926596 
N     2.5051099    1.6694368   -1.6767621 
C     3.7391163    1.7038366   -2.5122422 
H     1.7029601    1.2709949   -2.2109878 
C     4.0963280    3.0420973   -3.1746029 
O     3.1156660    3.9249585   -3.5986294 
O     5.4184232    3.4611640   -3.2857247 
H     6.0757424    2.7255291   -3.0719959 
C     3.8030169    0.5078949   -3.5007134 
H     4.5764385    1.5231645   -1.8044226 
C     2.6402942    0.3318258   -4.4720165 
H     3.8823696   -0.4093907   -2.8782379 
H     4.7401639    0.5740862   -4.0968044 
C     2.2879056   -0.8310484   -5.0517427 
C     2.8212611   -2.0734990   -4.9059146 
C     2.2804618   -3.1013792   -5.6208347 
C     1.2296867   -2.8773191   -6.4657141 
C     0.7146199   -1.6232482   -6.6024961 
C     1.2647397   -0.6235536   -5.8822004 
H     3.6608400   -2.2591203   -4.2436062 
H     2.6891347   -4.1040039   -5.5203825 
H     0.8055620   -3.7013585   -7.0339190 
H    -0.1145719   -1.4266430   -7.2737381 
N     0.8920872    0.7437189   -5.8957610 
C     1.8391190    1.2973482   -4.9702344 
H     0.1330343    1.2220153   -6.4339471 
H     1.8844754    2.3522657   -4.7226335 
