48
Energy =
C    -1.6374457   -0.9727701    1.6848153 
C    -1.0074865    0.1955654    1.9834662 
C    -1.5759939   -1.4826138    0.4218175 
C    -0.8884238   -0.8169653   -0.5344337 
C    -0.2653597    0.3453068   -0.2278937 
C    -0.3034877    0.8537923    1.0229604 
H    -1.0742587    0.5960844    2.9915053 
H    -0.8409330   -1.2215444   -1.5393096 
H     0.3852066    0.9889853   -0.9604388 
H    -2.1921066   -1.4960523    2.4562650 
C     0.3753393    2.1888238    1.2945407 
C     1.7960272    2.3216629    0.6566826 
H     0.4583246    2.3379139    2.3937003 
H    -0.2805159    3.0008776    0.9081766 
C     1.7922019    2.4261830   -0.8912104 
O    -2.2053305   -2.6847208    0.0838102 
H    -2.7100723   -3.1149283    0.8511306 
O     0.9870126    1.5821685   -1.6577897 
N     2.4874574    3.4690238    1.2678398 
H     2.3725997    1.3948064    0.8860915 
H     1.8994311    4.3333572    1.1842570 
H     2.6425941    3.2946142    2.2895610 
N     2.7704761    3.2030590   -1.6001785 
C     4.1452788    2.6840765   -1.4166829 
H     2.7078291    4.1836598   -1.2435309 
C     5.1567024    3.5944577   -2.0923770 
O     5.8558679    4.5268611   -1.3336619 
O     5.4025610    3.5084699   -3.4634994 
H     4.6930118    2.7608151   -3.9690803 
C     4.2851359    1.2306558   -1.9422540 
H     4.4213472    2.6947123   -0.3383630 
C     3.6705256    1.0345660   -3.3248454 
H     3.8341933    0.5494864   -1.1957803 
H     5.3620230    0.9551369   -1.9998980 
C     2.8535232    0.0328224   -3.6870852 
C     2.3652233   -0.9990384   -2.9416733 
C     1.5425350   -1.9071070   -3.5375066 
C     1.2220904   -1.7814212   -4.8569276 
C     1.7247365   -0.7480578   -5.5860069 
C     2.5376140    0.1425288   -4.9755760 
H     2.6028460   -1.1123131   -1.8912597 
H     1.1380308   -2.7347291   -2.9594517 
H     0.5643626   -2.5078292   -5.3274729 
H     1.4808547   -0.6358995   -6.6370589 
N     3.1495277    1.2612338   -5.5989849 
C     3.9085303    1.9351549   -4.5372131 
H     3.0690390    1.5251487   -6.6085252 
H     4.3077523    2.7446708   -5.1868501 
