48
Energy =
C     2.0756518   -0.4117572    5.0759096 
C     2.6731572   -0.9540551    3.9813199 
C     1.6591834    0.8857524    5.0583527 
C     1.8463451    1.6325983    3.9457699 
C     2.4434145    1.0854983    2.8598744 
C     2.8469499   -0.2055916    2.8582436 
H     3.0127916   -1.9857975    4.0145813 
H     1.5153637    2.6652686    3.9341844 
H     2.6365465    1.6346648    1.8376676 
H     1.9363309   -1.0158521    5.9659130 
C     3.5654158   -0.7607798    1.6361874 
C     2.9650698   -0.3003516    0.2686950 
H     3.5428810   -1.8722058    1.6763229 
H     4.6344330   -0.4575110    1.6901322 
C     3.1927010    1.1945150   -0.0405149 
O     1.0390021    1.4716508    6.1663629 
H     0.9427596    0.8502088    6.9617924 
O     2.8129520    2.1621522    0.8893101 
N     3.4975012   -1.1586977   -0.8028830 
H     1.8563246   -0.4197377    0.3044605 
H     4.5400334   -1.2157284   -0.7209658 
H     3.1255113   -2.1310492   -0.6878183 
N     3.3560360    1.6334860   -1.3895149 
C     4.7268635    1.9175710   -1.8534830 
H     2.5130921    1.6644492   -2.0021804 
C     4.8948202    3.3809032   -2.2248105 
O     5.5056614    4.2528801   -1.3331301 
O     4.4948747    3.8604345   -3.4707782 
H     3.9556838    3.0516847   -4.0688855 
C     5.1008659    0.9871086   -3.0296438 
H     5.4615639    1.7424873   -1.0326422 
C     4.0454067    0.9375066   -4.1270103 
H     5.2997030   -0.0180124   -2.6154469 
H     6.0578795    1.3299574   -3.4843390 
C     3.5884068   -0.1726712   -4.7286879 
C     3.9071169   -1.4767506   -4.4951002 
C     3.3109185   -2.4426885   -5.2488306 
C     2.4162085   -2.1021483   -6.2201880 
C     2.1148091   -0.7938117   -6.4421500 
C     2.7158776    0.1486283   -5.6820814 
H     4.6150424   -1.7675049   -3.7281199 
H     3.5500147   -3.4893784   -5.0759110 
H     1.9443723   -2.8767938   -6.8199456 
H     1.4081021   -0.5081631   -7.2142911 
N     2.5182961    1.5502596   -5.7970595 
C     3.3518542    2.1518989   -4.7423989 
H     1.9010508    2.0247873   -6.4991638 
H     3.0997095    3.2083100   -4.9863756 
