48
Energy =
C    -2.1696014   -1.5646656   -0.2247963 
C    -1.9386561   -0.2809521   -0.5992773 
C    -1.7540278   -2.5916559   -1.0112097 
C    -1.1198962   -2.3268877   -2.1746282 
C    -0.8850446   -1.0454562   -2.5544824 
C    -1.2700745   -0.0092503   -1.7568773 
H    -2.2917555    0.5198811    0.0422404 
H    -0.8025349   -3.1562095   -2.7977266 
H    -0.3754679   -0.8607453   -3.4964944 
H    -2.6885190   -1.7668613    0.7060588 
C    -0.9996446    1.4226799   -2.1925263 
C    -0.3723320    2.3152813   -1.0930048 
H    -1.9629446    1.8702704   -2.5199041 
H    -0.3241205    1.4380032   -3.0767952 
C     0.8785504    1.7032808   -0.4840515 
O    -1.9665089   -3.9253630   -0.6496597 
H    -2.4340968   -4.0414884    0.2429497 
O     0.8260854    1.2606825    0.8356256 
N    -0.1074487    3.6582347   -1.6364886 
H    -1.0876451    2.4221428   -0.2449633 
H     0.5425594    3.5980610   -2.4564857 
H    -1.0000394    4.0914367   -1.9726157 
N     2.1567503    1.8483220   -1.1331258 
C     3.0830553    0.7413697   -0.7843555 
H     2.5342994    2.7454627   -0.7442453 
C     4.5322926    1.0992071   -1.0959217 
O     5.5227269    0.7767708   -0.1776999 
O     4.9041210    1.6813390   -2.3081094 
H     4.0974254    1.8965087   -2.8763450 
C     2.6687502   -0.5321396   -1.5570338 
H     3.0772509    0.5526566    0.3197492 
C     3.2036949   -1.7833629   -0.9019014 
H     3.0114498   -0.4750894   -2.6147630 
H     1.5680080   -0.6076535   -1.6062805 
C     2.6264190   -2.4733342    0.0946788 
C     1.4586383   -2.2459907    0.7493004 
C     1.0892913   -3.1135104    1.7336953 
C     1.8859270   -4.1781930    2.0511871 
C     3.0597625   -4.3808002    1.3871598 
C     3.4016228   -3.5105054    0.4139421 
H     0.8289723   -1.3938451    0.5111695 
H     0.1582519   -2.9554646    2.2705578 
H     1.5828153   -4.8626626    2.8392281 
H     3.7064865   -5.2168811    1.6307774 
N     4.5751305   -3.5327722   -0.3870263 
C     4.3714153   -2.3743026   -1.2077821 
H     5.3684164   -4.2147949   -0.3853150 
H     5.0786683   -2.0150600   -1.9536826 
