48
Energy =
C    -1.3992318   -2.0546063    1.4670954 
C    -0.3345477   -1.7514450    0.6826658 
C    -1.3074623   -1.9374896    2.8187882 
C    -0.1493670   -1.5161126    3.3763434 
C     0.9186661   -1.2109462    2.5965423 
C     0.8329230   -1.3310009    1.2438510 
H    -0.4240845   -1.8446096   -0.3965457 
H    -0.0897230   -1.4253255    4.4555101 
H     1.8405251   -0.8712784    3.0621907 
H    -2.3243377   -2.3890382    1.0107273 
C     2.0159138   -0.9749394    0.3732156 
C     2.1658347    0.5518071    0.1780586 
H     1.9349028   -1.4725151   -0.6154705 
H     2.9425444   -1.3831004    0.8390452 
C     3.4338812    0.8639279   -0.5963182 
O    -2.3859480   -2.2415267    3.6557237 
H    -3.2174439   -2.5487367    3.1632196 
O     4.6618549    0.5741963   -0.0121965 
N     0.9666278    1.1252849   -0.4617294 
H     2.3241383    1.0352250    1.1717711 
H     0.6402638    0.5003271   -1.2339704 
H     0.1884702    1.1628478    0.2390280 
N     3.4101876    1.5015196   -1.8814820 
C     4.3028244    0.9523610   -2.9200772 
H     2.6973576    2.2425058   -2.0680503 
C     5.3755157    1.9709933   -3.2932299 
O     5.3276368    2.6188629   -4.5234088 
O     6.4210536    2.2746879   -2.4234256 
H     6.2977542    1.8339493   -1.5208743 
C     3.4739172    0.5127066   -4.1510078 
H     4.8719757    0.0749214   -2.5359835 
C     2.3965284   -0.4925708   -3.8099489 
H     4.1482566    0.0708978   -4.9185733 
H     3.0132379    1.4112047   -4.6226483 
C     2.5670550   -1.7785477   -3.4650621 
C     3.7077464   -2.5039999   -3.3393285 
C     3.6071487   -3.8071707   -2.9496004 
C     2.3821785   -4.3610098   -2.6987685 
C     1.2493664   -3.6163347   -2.8411145 
C     1.3747050   -2.3301305   -3.2291386 
H     4.6814360   -2.0705410   -3.5455109 
H     4.5062848   -4.4093711   -2.8390986 
H     2.3111376   -5.4006283   -2.3879824 
H     0.2700473   -4.0412883   -2.6485865 
N     0.3302034   -1.3881079   -3.4255179 
C     1.0788716   -0.2250678   -3.8035743 
H    -0.7025590   -1.5073222   -3.3104352 
H     0.6374144    0.7416047   -4.0380084 
