48
 energy: -9.292841763939 gnorm: 0.000505873986 xtb: 6.6.0 (2ccbbd7)
C            3.28653165778171        1.62551092156157        5.45771154797517
C            2.50505211337962        1.67643792410110        4.32751532674663
C            4.30059521754117        0.67448676227210        5.57775686061046
C            4.49842489424522       -0.21701761382750        4.52407109964217
C            3.71280091382630       -0.16009421335083        3.39852998225194
C            2.70248049071196        0.78259522291172        3.28471254093311
H            1.72891301392749        2.41768443147807        4.24326880516138
H            5.28251327905292       -0.94707839189383        4.61492881573313
H            3.88407030960120       -0.84611252745840        2.58747135895247
H            3.12413384407152        2.32115518745610        6.26141901316466
C            1.88280279614066        0.85863466933214        2.03573542380791
C            2.67870800687664        1.39414247062643        0.84429876817694
H            1.00605868986686        1.49429394008827        2.18973311001675
H            1.48584393508417       -0.13330667753741        1.79506249548833
C            1.88602101105380        1.27960693228230       -0.43620312508101
O            5.10579126487354        0.59575377917076        6.69779422304555
H            4.84449698711395        1.28145713541989        7.34939035592232
O            0.67306033720518        1.25830128545514       -0.37663401296034
N            3.08778698600360        2.78181651704041        1.02593773020709
H            3.58238588341829        0.77533678078114        0.74966958526702
H            2.25220708120270        3.34840359754143        1.08846151155299
H            3.57998301438906        2.88497891964732        1.90276548056803
N            2.55646127007238        1.23667495088911       -1.63838482677371
C            4.00383004992802        1.39549972389590       -1.79545144767988
H            2.02750057436295        1.29820077799312       -2.50520727250580
C            4.29249003489346        2.72008177810051       -2.46582095564489
O            4.67003448517112        2.73765918703354       -3.61616315782946
O            4.07733513602795        3.79988600208272       -1.67578761742486
H            3.74096388719836        3.50428533002096       -0.78778432949924
C            4.60192242164426        0.20093913425626       -2.52907290665697
H            4.46101823723113        1.43855757725547       -0.80065443491564
C            4.36019101441348       -1.05826355705639       -1.76916556762313
H            5.67492805388212        0.35079710521774       -2.68494355104264
H            4.15485182172848        0.13522839285377       -3.52504998881266
C            4.99828214673133       -1.43272420557345       -0.54891390841485
C            6.04627102726826       -0.86412341285904        0.19539573418471
C            6.41848070753608       -1.46383245729396        1.36661425465967
C            5.77121834256095       -2.62145334351816        1.82875341649255
C            4.74330979437172       -3.18695049991815        1.12516166648319
C            4.34908564864942       -2.59049170466365       -0.07899905409576
H            6.53975218467200        0.02192737512818       -0.16254132768568
H            7.22249019515397       -1.04255262129904        1.94702234718317
H            6.09156420850445       -3.07070679106909        2.75420344184412
H            4.24003563793355       -4.07124520043457        1.47289396148733
N            3.34965798262815       -2.90156141934623       -0.98394916975782
C            3.35459120895302       -1.96725905370658       -1.98991296058635
H            2.69120646338625       -3.67586891615982       -0.88134004470321
H            2.64865339648619       -1.93498111345189       -2.80442142594907
