48
 energy: -9.287207667813 gnorm: 0.000585351666 xtb: 6.6.0 (2ccbbd7)
C            0.77259194825337        3.69598035836427       -4.86220666090363
C            0.44760390314622        3.36718838940961       -3.56685514957312
C            0.65404673230793        2.75503411521104       -5.88584579934458
C            0.18662286954546        1.48199655240177       -5.56238272493968
C           -0.14039779840311        1.16221831902888       -4.26716131170032
C           -0.01252539037242        2.09699359670074       -3.25019961142921
H            0.55420752321039        4.09696079837484       -2.78207326400927
H            0.09363814502712        0.75740360346291       -6.35140725491080
H           -0.49063167371884        0.17265980676007       -4.02873145606944
H            1.13488182179595        4.68080340989176       -5.09732551445375
C           -0.29860689000294        1.70825560392037       -1.83263148426716
C            0.72087457384207        0.70308021078406       -1.29098804471281
H           -1.30760288762511        1.28917556741265       -1.76917197831743
H           -0.29760552509208        2.59431932954912       -1.19148074510903
C            2.09856909008058        1.31901048516513       -1.20871038588540
O            0.98709596230265        3.04564505281411       -7.19479338346356
H            1.35174652067577        3.95411709837120       -7.25597647670385
O            2.53353020223971        1.64332351782977       -0.12364297929266
N            0.35568395080457        0.17455702021201        0.01825534654509
H            0.77351995697218       -0.15386550656611       -1.97950128996004
H            0.70594137937169        0.81396672095601        0.72680854295604
H           -0.64900635587577        0.09483762515850        0.12087892782758
N            2.81549172607306        1.49115478738758       -2.37429768732619
C            4.26037301817422        1.64837295578343       -2.29780452214040
H            2.48963666055760        1.06603855052897       -3.24196517871423
C            4.76620224092062        2.76778429143672       -3.18369964378207
O            5.96619511205096        2.86937314263807       -3.32058047307376
O            3.84765546135671        3.57948614782652       -3.75824508444590
H            2.93465720390741        3.30968905277131       -3.50876219022024
C            4.96496761414541        0.32878666678890       -2.62744557902856
H            4.47122318270420        1.92498907570184       -1.25341402472283
C            4.29239961292987       -0.83824677109593       -1.99092229247808
H            6.01768951140880        0.37738441914145       -2.33087730587407
H            4.96707681380584        0.19394083964347       -3.71303193092045
C            3.21431239951729       -1.58135444187521       -2.55972250755623
C            2.59168343652069       -1.54777677295801       -3.82030965038898
C            1.50346961381231       -2.34664836695485       -4.03561117982019
C            1.00839352366715       -3.18708564736145       -3.02545852501868
C            1.59911442522255       -3.23756814550092       -1.79247307898097
C            2.71617079315208       -2.42798489438477       -1.55133484097317
H            2.97045381464966       -0.90012571379381       -4.59091344914227
H            1.01508836653424       -2.33148935182375       -4.99582175521458
H            0.14646558071583       -3.80126647559992       -3.22699808834087
H            1.22021937848647       -3.87028180443177       -1.01013005085916
N            3.48031198646012       -2.21587385673771       -0.41716314314963
C            4.41041848363589       -1.24134121218082       -0.68349850558711
H            3.29333226010172       -2.63502743201259        0.49557909443519
H            5.07540350545117       -0.80830268779117        0.04675070921140
