48
Energy =
C     0.3552285   -0.1744750    4.7967458 
C     0.9057426   -0.8561879    3.7603857 
C    -0.5782096    0.7862985    4.5641499 
C    -0.9542850    1.0583590    3.2944825 
C    -0.4101168    0.3771078    2.2550951 
C     0.5300829   -0.5822493    2.4793110 
H     1.6486578   -1.6220369    3.9652518 
H    -1.6943484    1.8316513    3.1203844 
H    -0.7236863    0.6155394    1.2423115 
H     0.6627621   -0.4003441    5.8121343 
C     1.1435738   -1.3480999    1.3214686 
C     2.4300332   -0.7105462    0.7322556 
H     0.3882160   -1.4695548    0.5132002 
H     1.3816059   -2.3822042    1.6564783 
C     2.1618484    0.5480241   -0.0937254 
O    -1.1679050    1.5038851    5.6097988 
H    -0.8188808    1.2557638    6.5290165 
O     1.5362357    1.6472450    0.4767069 
N     3.4441750   -0.4658665    1.7705853 
H     2.8504676   -1.4565413    0.0213055 
H     3.1265861    0.3138875    2.3987052 
H     3.5699648   -1.3204432    2.3615814 
N     2.5955684    0.6436279   -1.4603886 
C     4.0746830    0.7764646   -1.5619290 
H     2.2112343   -0.1845529   -1.9644624 
C     4.4775550    2.2228161   -1.8227793 
O     5.6244931    2.7176163   -1.2139134 
O     3.8017808    3.0316999   -2.7365628 
H     2.9593920    2.5864820   -3.0689622 
C     4.6378427   -0.1423592   -2.6754843 
H     4.5920237    0.5227951   -0.6017744 
C     4.5401888   -1.6050315   -2.2984104 
H     5.7139404    0.0947952   -2.8475649 
H     4.1227935    0.0663359   -3.6374842 
C     3.6674634   -2.5139316   -2.7670801 
C     2.6929207   -2.3901988   -3.7062302 
C     1.9222386   -3.4794609   -3.9887848 
C     2.1325323   -4.6625702   -3.3367781 
C     3.1157831   -4.7643756   -2.3985246 
C     3.8663803   -3.6739944   -2.1377431 
H     2.5218559   -1.4553030   -4.2305006 
H     1.1381791   -3.4078506   -4.7393042 
H     1.5152550   -5.5269851   -3.5693927 
H     3.2961716   -5.6958897   -1.8724907 
N     4.9220327   -3.5670172   -1.1942938 
C     5.3040368   -2.1962265   -1.3624040 
H     5.3064671   -4.2901875   -0.5432355 
H     6.0891051   -1.7021774   -0.7925070 
