48
Energy =
C    -1.3782624    4.5437313   -0.5847377 
C    -1.1213443    3.9396077   -1.7725240 
C    -0.7368667    5.6953357   -0.2506775 
C     0.1576028    6.2356483   -1.1084447 
C     0.4173273    5.6371203   -2.2972238 
C    -0.2200902    4.4818269   -2.6375272 
H    -1.6402333    3.0184413   -2.0250077 
H     0.6648279    7.1532248   -0.8305364 
H     1.1432317    6.0860449   -2.9710579 
H    -2.0976759    4.1033121    0.0975787 
C     0.0802379    3.8014640   -3.9582878 
C     1.2748553    2.8187659   -3.8917533 
H     0.2933988    4.5750579   -4.7310632 
H    -0.8215012    3.2621516   -4.3229694 
C     2.5683883    3.5025466   -3.4692664 
O    -0.9776678    6.3417970    0.9650561 
H    -1.6594897    5.8758982    1.5540505 
O     3.1610135    4.4194428   -4.3305538 
N     0.9573384    1.6445933   -3.0599874 
H     1.4665955    2.4580310   -4.9279240 
H     0.7966951    1.9357842   -2.0675509 
H     0.0777027    1.1942590   -3.4053687 
N     3.0614652    3.3920671   -2.1234725 
C     4.3018472    2.6335957   -1.8442512 
H     2.5214507    3.8478953   -1.3543969 
C     5.4640734    3.5648225   -1.5006265 
O     6.0287687    3.5011079   -0.2316452 
O     6.0070657    4.4554700   -2.4276789 
H     5.4548579    4.4842869   -3.2727776 
C     4.6517533    1.6311261   -2.9759733 
H     4.1235717    2.0394304   -0.9192892 
C     5.7873481    0.7174885   -2.5735045 
H     4.9304612    2.1755597   -3.9058851 
H     3.7584376    1.0159740   -3.2240360 
C     5.6921190   -0.4234589   -1.8733031 
C     4.5940968   -1.0574786   -1.3870870 
C     4.7715341   -2.2154087   -0.6883215 
C     6.0288259   -2.7140725   -0.4852123 
C     7.1167867   -2.0570977   -0.9791332 
C     6.9151338   -0.9153722   -1.6698906 
H     3.5955519   -0.6597811   -1.5429988 
H     3.9091093   -2.7430364   -0.2885256 
H     6.1622614   -3.6357768    0.0754092 
H     8.1211479   -2.4350734   -0.8215078 
N     7.9037967   -0.0746043   -2.2481837 
C     7.0881300    0.9654315   -2.8063207 
H     8.9432491   -0.1887476   -2.2656219 
H     7.4722283    1.8519446   -3.3108241 
