48
Energy =
C    -4.1475460    1.2445411    0.5380624 
C    -2.9985650    1.8308505    0.1170299 
C    -4.8756095    0.4762722   -0.3156044 
C    -4.4477129    0.2999324   -1.5863655 
C    -3.2991149    0.8835163   -2.0129514 
C    -2.5685217    1.6561171   -1.1633686 
H    -2.4256473    2.4374434    0.8135132 
H    -5.0373114   -0.3155508   -2.2569069 
H    -2.9704253    0.7285325   -3.0373178 
H    -4.4812935    1.3906167    1.5595885 
C    -1.2789912    2.2918293   -1.6343002 
C    -0.1007773    1.2851918   -1.6661472 
H    -1.0108284    3.1648371   -0.9973268 
H    -1.4415582    2.7088005   -2.6542755 
C     1.1461070    1.8733619   -2.3189338 
O    -6.0632064   -0.1435384    0.0867426 
H    -6.3183947    0.0417824    1.0506224 
O     1.1275699    3.1899870   -2.7641814 
N     0.2074979    0.8043845   -0.3093436 
H    -0.3882384    0.4171466   -2.3026685 
H     0.3580002    1.6160384    0.3362691 
H    -0.5954800    0.2446699    0.0622811 
N     2.3187194    1.0432344   -2.4727144 
C     3.6329998    1.5217589   -2.9796415 
H     2.1639950    0.0143343   -2.3735117 
C     3.7295231    3.0010479   -3.3707519 
O     4.4217611    3.8742026   -2.5378103 
O     3.2456012    3.4821311   -4.5894814 
H     2.6182193    2.8183572   -5.0168686 
C     4.1044912    0.6031139   -4.1362250 
H     4.3588294    1.4264356   -2.1412282 
C     4.5337960   -0.7609448   -3.6409649 
H     4.9617943    1.0640903   -4.6778851 
H     3.2855810    0.4904407   -4.8810025 
C     5.6856337   -1.0634750   -3.0221259 
C     6.7387343   -0.2666712   -2.7056516 
C     7.8043529   -0.8265031   -2.0641302 
C     7.8015852   -2.1584158   -1.7529345 
C     6.7329213   -2.9388513   -2.0818999 
C     5.6909541   -2.3617436   -2.7163807 
H     6.7428117    0.7910303   -2.9536108 
H     8.6603841   -0.2103108   -1.7989429 
H     8.6546407   -2.5970534   -1.2412247 
H     6.7143513   -3.9965637   -1.8421832 
N     4.4892901   -2.9888833   -3.1418526 
C     3.7948841   -1.8809376   -3.7296332 
H     4.1933700   -3.9876095   -3.0498569 
H     2.8053760   -1.9428660   -4.1758171 
