48
Energy =
C    -3.0748788    0.9220877   -4.0535310 
C    -1.8936527    1.4552520   -3.6512874 
C    -4.2334539    1.2884726   -3.4427941 
C    -4.2009608    2.1870577   -2.4325068 
C    -3.0224448    2.7235511   -2.0260553 
C    -1.8607230    2.3621516   -2.6366230 
H    -0.9750097    1.1514363   -4.1469030 
H    -5.1314655    2.4699073   -1.9529748 
H    -3.0176695    3.4401474   -1.2091602 
H    -3.0898495    0.2013844   -4.8638535 
C    -0.5409838    2.9414417   -2.1788207 
C     0.2574606    1.9613819   -1.2842532 
H    -0.6879865    3.9029464   -1.6401586 
H     0.0691689    3.1985024   -3.0745831 
C     1.6665840    2.4583138   -1.0070300 
O    -5.4676405    0.7567338   -3.8315520 
H    -5.4064493    0.0949615   -4.5974566 
O     2.0422764    3.5730718   -1.3987237 
N    -0.4518393    1.7107063   -0.0196814 
H     0.3867115    0.9986924   -1.8301383 
H    -0.6762173    2.6208381    0.4467790 
H    -1.3555690    1.2201903   -0.2147042 
N     2.6429109    1.5707596   -0.4431548 
C     3.9660320    1.6600187   -1.0805210 
H     2.3952643    0.9179857    0.3348303 
C     4.1008527    3.0078546   -1.8025755 
O     5.2543173    3.3211285   -2.5134250 
O     3.1790217    3.8374539   -1.7402019 
H     2.7564400    4.0235655   -0.8547474 
C     4.1114813    0.4494928   -2.0252632 
H     4.7514158    1.6343457   -0.2945805 
C     5.5239665    0.2789596   -2.5422046 
H     3.3847768    0.5390443   -2.8609717 
H     3.8298326   -0.4740598   -1.4729136 
C     5.9946849    0.6103974   -3.7566799 
C     5.3610699    1.1780360   -4.8160946 
C     6.0792768    1.4136695   -5.9513168 
C     7.4043310    1.0821194   -6.0121378 
C     8.0206058    0.5156803   -4.9363432 
C     7.2895684    0.2935278   -3.8237584 
H     4.3142732    1.4605524   -4.7674617 
H     5.5968245    1.8766288   -6.8086557 
H     7.9704042    1.2779788   -6.9192403 
H     9.0722555    0.2520493   -4.9663359 
N     7.7387333   -0.2795161   -2.6035654 
C     6.5340365   -0.2484049   -1.8276516 
H     8.6888192   -0.6337418   -2.3479499 
H     6.4532356   -0.6056155   -0.8038928 
