48
Energy =
C    -0.2374464    6.1270387   -4.8717890 
C     0.1124563    5.5994627   -3.6708540 
C     0.6502191    6.1304898   -5.9026085 
C     1.8845088    5.6087781   -5.7229103 
C     2.2399198    5.0821302   -4.5252512 
C     1.3553233    5.0745041   -3.4896138 
H    -0.6114696    5.5951904   -2.8598245 
H     2.5850274    5.6149322   -6.5505209 
H     3.2355992    4.6627208   -4.4064085 
H    -1.2303933    6.5420231   -5.0072193 
C     1.7418995    4.4481989   -2.1675209 
C     1.7128326    2.9019494   -2.2434649 
H     1.0818158    4.7965383   -1.3429861 
H     2.7619203    4.8077800   -1.8906365 
C     2.4737317    2.2769058   -1.0892513 
O     0.3188272    6.6596589   -7.1542890 
H    -0.6196633    7.0406148   -7.2054284 
O     2.1505300    2.6107318    0.2224763 
N     0.3259418    2.4095315   -2.2755090 
H     2.2379990    2.5709794   -3.1669044 
H    -0.1806659    2.7194789   -1.4112330 
H    -0.1761235    2.7996323   -3.1064390 
N     3.4360664    1.2341314   -1.3243429 
C     4.8096019    1.7132708   -1.6570444 
H     3.4629320    0.6656796   -0.4456513 
C     4.9929624    3.2369602   -1.7304457 
O     5.1735773    3.8777936   -2.9449118 
O     4.9373401    4.0287014   -0.5871609 
H     4.6803299    3.4934918    0.2324648 
C     5.3159075    0.9654502   -2.9212132 
H     5.5011637    1.4219529   -0.8324132 
C     4.3427816    1.0003876   -4.0884898 
H     5.4837255   -0.1010666   -2.6535114 
H     6.3083887    1.3608712   -3.2268268 
C     4.4026779    1.7655456   -5.1952528 
C     5.3400550    2.6650836   -5.5929931 
C     5.1483860    3.3299109   -6.7688807 
C     4.0389258    3.0842029   -7.5280097 
C     3.1159693    2.1702122   -7.1173173 
C     3.3279911    1.5258263   -5.9509974 
H     6.2206011    2.8692979   -4.9926520 
H     5.8814439    4.0611246   -7.1019250 
H     3.8918714    3.6181536   -8.4640070 
H     2.2307740    1.9612272   -7.7087587 
N     2.4942003    0.5446712   -5.3556048 
C     3.2279992    0.2490422   -4.1614275 
H     1.5895646    0.1452681   -5.6958999 
H     2.9002573   -0.4539552   -3.3984883 
