48
Energy =
C     2.4132907    2.6987350    2.1113721 
C     1.2256785    2.9446829    1.5030923 
C     2.6611186    1.4788238    2.6574235 
C     1.7122464    0.5168175    2.6031356 
C     0.5232393    0.7564204    1.9944588 
C     0.2748101    1.9709152    1.4323869 
H     1.0510573    3.9208847    1.0536824 
H     1.9210582   -0.4507804    3.0461160 
H    -0.2213502   -0.0338444    1.9497498 
H     3.1699098    3.4763240    2.1454065 
C    -1.0258652    2.2244198    0.6962658 
C    -0.9360672    1.9334807   -0.8244565 
H    -1.3284954    3.2863112    0.8443149 
H    -1.8435504    1.6185083    1.1443813 
C     0.1748719    2.7327831   -1.4970387 
O     3.8837093    1.1846128    3.2682811 
H     4.5368745    1.9615444    3.2734024 
O     0.1161281    4.1206104   -1.4530747 
N    -0.8457223    0.4834045   -1.0781898 
H    -1.8701301    2.3108454   -1.3024733 
H     0.0140142    0.0912219   -0.6309173 
H    -1.6682225   -0.0030691   -0.6501457 
N     1.1388509    2.1167460   -2.3598589 
C     2.3388910    1.5367055   -1.7262268 
H     0.8980199    2.0158521   -3.3687637 
C     3.5106953    2.5177161   -1.7240572 
O     3.6633527    3.4297761   -2.7628041 
O     4.4994833    2.4594444   -0.7359961 
H     4.3095061    1.7447730   -0.0474171 
C     2.6917700    0.1837791   -2.3862434 
H     2.1220563    1.3125757   -0.6599846 
C     3.1093550    0.3017876   -3.8391570 
H     1.8050193   -0.4848399   -2.3175957 
H     3.4981410   -0.3169970   -1.8071719 
C     4.3435176    0.5426490   -4.3139750 
C     5.5144772    0.7294722   -3.6510351 
C     6.6438112    0.9589372   -4.3804313 
C     6.5894652    0.9915467   -5.7462119 
C     5.4049535    0.7944967   -6.3911890 
C     4.3006865    0.5727136   -5.6476594 
H     5.5639540    0.7061452   -2.5668040 
H     7.5911430    1.1216736   -3.8717726 
H     7.4937686    1.1778175   -6.3201110 
H     5.3446695    0.8165683   -7.4739991 
N     2.9822508    0.3373482   -6.1209738 
C     2.2745108    0.1695991   -4.8858183 
H     2.6294322    0.2917550   -7.1045136 
H     1.2094688   -0.0391807   -4.8107685 
