48
Energy =
C     1.8307772    0.6094980    2.6496253 
C     0.6397109    0.4860649    2.0115249 
C     2.4837257    1.8021232    2.6540441 
C     1.9333507    2.8681146    2.0300246 
C     0.7416019    2.7508585    1.3922537 
C     0.0901019    1.5542837    1.3708491 
H     0.1348542   -0.4765199    2.0081259 
H     2.4638494    3.8149812    2.0382532 
H     0.3231324    3.6179295    0.8856806 
H     2.2630650   -0.2503638    3.1500607 
C    -1.2120706    1.4053918    0.6092254 
C    -1.0121557    1.0461535   -0.8859391 
H    -1.7876292    2.3566650    0.6799659 
H    -1.8512106    0.6354948    1.0943266 
C    -0.1536042    2.0734163   -1.6154633 
O     3.7228105    1.9555764    3.2827977 
H     4.0532791    1.1200632    3.7529850 
O    -0.5965767    3.3890683   -1.6798902 
N    -0.5154494   -0.3347838   -1.0344493 
H    -2.0049968    1.1129708   -1.3889547 
H     0.4056795   -0.4424675   -0.5514503 
H    -1.1835686   -1.0009571   -0.5797105 
N     0.9581543    1.6853727   -2.4320375 
C     2.2690808    1.5533085   -1.7681681 
H     0.7701019    1.4180309   -3.4216933 
C     3.1084415    2.8182819   -1.9289270 
O     3.0049305    3.5825501   -3.0860059 
O     4.0578787    3.1838288   -0.9697058 
H     4.0694748    2.5577477   -0.1764307 
C     2.9988087    0.2834858   -2.2666198 
H     2.1207093    1.4172136   -0.6754651 
C     3.3611645    0.3230040   -3.7384450 
H     2.3468433   -0.5983365   -2.0791357 
H     3.9177566    0.1176504   -1.6625866 
C     4.4701242    0.8454110   -4.2899097 
C     5.5365768    1.4499225   -3.7043865 
C     6.5478567    1.8974138   -4.5025868 
C     6.4835315    1.7307167   -5.8581103 
C     5.4070962    1.1150899   -6.4239557 
C     4.4175102    0.6840860   -5.6137731 
H     5.5928836    1.5870806   -2.6288818 
H     7.4070761    2.3940877   -4.0578655 
H     7.2925827    2.0929132   -6.4874645 
H     5.3407841    0.9745475   -7.4974841 
N     3.2242860    0.0165370   -5.9990909 
C     2.5991601   -0.1832720   -4.7248621 
H     2.8980332   -0.2586994   -6.9539664 
H     1.6419912   -0.6800188   -4.5807007 
