48
Energy =
C    -2.6700208    3.4095496   -0.4535426 
C    -1.5088421    2.7105620   -0.5142184 
C    -3.3124622    3.5655332    0.7348626 
C    -2.7867804    3.0199797    1.8553723 
C    -1.6252255    2.3198828    1.8007970 
C    -0.9777339    2.1635369    0.6139918 
H    -1.0059572    2.5929280   -1.4726525 
H    -3.3097043    3.1513773    2.7960343 
H    -1.2204314    1.8860643    2.7110380 
H    -3.0820468    3.8421169   -1.3587867 
C     0.3081960    1.3725952    0.5375301 
C     0.0751367   -0.0646922    0.0122408 
H     0.8171959    1.3380629    1.5264927 
H     1.0097647    1.9154849   -0.1353928 
C     1.3831285   -0.7022938   -0.4187501 
O    -4.5121557    4.2785479    0.8326134 
H    -4.8344255    4.6597489   -0.0502808 
O     2.4420552   -0.7893175    0.4795840 
N    -0.5924834   -0.8904332    1.0300479 
H    -0.5697576   -0.0251662   -0.8970318 
H    -0.0215063   -0.8997607    1.9092202 
H    -1.5280286   -0.4810905    1.2583351 
N     1.6449459   -0.9126870   -1.8115430 
C     2.4881514    0.0985823   -2.4758766 
H     1.2884437   -1.7815447   -2.2689461 
C     1.6716596    1.3076596   -2.9043709 
O     2.1865428    2.5782725   -2.6848457 
O     0.4372258    1.1852107   -3.5427493 
H     0.1677610    0.2178043   -3.6461397 
C     3.2132743   -0.5386032   -3.6789505 
H     3.2510710    0.4947404   -1.7604831 
C     4.2662982   -1.5223522   -3.2195938 
H     3.6974220    0.2490761   -4.2993495 
H     2.4766770   -1.0478540   -4.3397361 
C     5.5101342   -1.2301627   -2.8082447 
C     6.1401359   -0.0297912   -2.7255408 
C     7.4209641   -0.0017606   -2.2572672 
C     8.0444667   -1.1593846   -1.8807159 
C     7.3903642   -2.3524221   -1.9694052 
C     6.1249105   -2.3545563   -2.4381732 
H     5.6452692    0.8920948   -3.0175132 
H     7.9474874    0.9466754   -2.1788720 
H     9.0640467   -1.1281616   -1.5044934 
H     7.8676740   -3.2788251   -1.6684588 
N     5.2683574   -3.4770116   -2.5941410 
C     4.0805415   -2.8482738   -3.0953292 
H     5.4599364   -4.4871924   -2.4025218 
H     3.1512029   -3.3706274   -3.3111562 
