48
Energy =
C     0.1857363   -1.5189357    1.4799451 
C     1.2480024   -1.1947600    2.2595886 
C    -0.8876763   -0.6873405    1.4073696 
C    -0.8887862    0.4659511    2.1129508 
C     0.1699322    0.7947267    2.8943141 
C     1.2447414   -0.0370678    2.9776532 
H     2.1049665   -1.8637449    2.2979520 
H    -1.7464959    1.1251658    2.0404029 
H     0.1552728    1.7306766    3.4458350 
H     0.1989496   -2.4433879    0.9125409 
C     2.4435025    0.3394696    3.8259519 
C     3.4342738    1.2570990    3.0788060 
H     2.9763972   -0.5802292    4.1583879 
H     2.0996614    0.8436022    4.7556036 
C     3.9503192    0.6009351    1.8062212 
O    -1.9992741   -0.9927792    0.6162162 
H    -1.9173974   -1.8678309    0.1100463 
O     4.7656166   -0.5228541    1.9045184 
N     2.7961206    2.5597290    2.8220895 
H     4.3310540    1.4032444    3.7253434 
H     2.6491117    3.0558706    3.7322949 
H     3.4444191    3.1650744    2.2624610 
N     3.4138255    0.9591335    0.5274111 
C     4.3727540    1.2084901   -0.5598395 
H     2.3789217    1.0649842    0.4151367 
C     3.9942687    2.4613197   -1.3448495 
O     2.6634658    2.6887825   -1.6748743 
O     4.9598775    3.3472725   -1.8240649 
H     5.8974785    3.0450371   -1.6042606 
C     4.3958121   -0.0310844   -1.4691014 
H     5.3912306    1.3705705   -0.1355970 
C     5.5318820    0.0344683   -2.4636828 
H     3.4211895   -0.1271810   -1.9995521 
H     4.5004921   -0.9465459   -0.8453744 
C     6.8049317   -0.3298844   -2.2482711 
C     7.3812483   -0.8641080   -1.1409128 
C     8.7178075   -1.1338504   -1.1731998 
C     9.4503989   -0.8638032   -2.2962651 
C     8.8506909   -0.3200740   -3.3936081 
C     7.5263791   -0.0661516   -3.3384271 
H     6.8026287   -1.0699939   -0.2437860 
H     9.2029747   -1.5624199   -0.2994987 
H    10.5158292   -1.0789365   -2.3126505 
H     9.4183640   -0.0917565   -4.2891873 
N     6.7197329    0.5172497   -4.3519987 
C     5.4427606    0.5569924   -3.6993295 
H     6.9853579    0.8298181   -5.3139672 
H     4.5423734    0.9988977   -4.1257241 
