48
Energy =
C    -2.3675129   -1.3156953   -3.1393805 
C    -1.3236579   -0.4907815   -2.8719670 
C    -3.6293546   -0.9600628   -2.7782255 
C    -3.8377230    0.2200959   -2.1515559 
C    -2.7975921    1.0492335   -1.8819187 
C    -1.5326902    0.6987851   -2.2432169 
H    -0.3210231   -0.7869691   -3.1677044 
H    -4.8490641    0.4909104   -1.8680609 
H    -2.9857535    1.9910969   -1.3733234 
H    -2.1910234   -2.2601283   -3.6428173 
C    -0.3647352    1.6085007   -1.9315852 
C     0.4304007    1.1370086   -0.6862070 
H    -0.7093151    2.6564176   -1.7817747 
H     0.2959645    1.6273655   -2.8251069 
C     1.7334482    1.9065103   -0.4918956 
O    -4.7267656   -1.7871077   -3.0373123 
H    -4.4900789   -2.6507657   -3.5133676 
O     2.3232110    1.9518163    0.7658017 
N    -0.4116280    1.2259302    0.5180910 
H     0.7416589    0.0811861   -0.8221435 
H    -0.7619917    2.2043682    0.6463805 
H    -1.2350895    0.5854839    0.4408885 
N     2.5128870    2.3383173   -1.6168642 
C     3.7798502    1.6229486   -1.8658112 
H     2.1184710    3.0539461   -2.2678115 
C     4.8007155    2.5442376   -2.5225305 
O     6.0247636    2.7575993   -1.9014502 
O     4.5705964    3.1316981   -3.7679525 
H     3.6606896    2.8944874   -4.1325632 
C     3.5165060    0.3519835   -2.7277785 
H     4.2525858    1.3560135   -0.8865343 
C     3.8233728   -0.9260903   -1.9748739 
H     4.1361342    0.3547448   -3.6540268 
H     2.4623221    0.3358019   -3.0812189 
C     5.0364155   -1.3659058   -1.6009882 
C     6.2613834   -0.8124142   -1.7934638 
C     7.3532585   -1.4688372   -1.3071128 
C     7.2076719   -2.6580491   -0.6479280 
C     5.9686091   -3.1991012   -0.4731469 
C     4.9037464   -2.5292608   -0.9617187 
H     6.3841004    0.1276010   -2.3224267 
H     8.3445350   -1.0423003   -1.4444889 
H     8.0834681   -3.1742543   -0.2624478 
H     5.8357567   -4.1427025    0.0451010 
N     3.5399125   -2.9195983   -0.8949433 
C     2.9086688   -1.8294724   -1.5790237 
H     3.1187256   -3.7771424   -0.4688594 
H     1.8418469   -1.7662924   -1.7707393 
