48
Energy =
C    -1.6552618    2.1696195   -6.1085978 
C    -1.2125619    2.6143094   -4.9023024 
C    -1.1626024    1.0142846   -6.6373748 
C    -0.2277773    0.3129438   -5.9556014 
C     0.2104065    0.7625556   -4.7549395 
C    -0.2823051    1.9010594   -4.2114594 
H    -1.6054080    3.5435349   -4.4985035 
H     0.1639378   -0.6053564   -6.3779774 
H     1.0117537    0.2263590   -4.0778205 
H    -2.3999381    2.7421354   -6.6506527 
C     0.2704788    2.3987094   -2.8817732 
C     0.5464555    1.2670156   -1.8440470 
H    -0.4468094    3.1217157   -2.4357605 
H     1.2140626    2.9588584   -3.0732637 
C     1.7457518    0.3784399   -2.2262742 
O    -1.5978635    0.5302151   -7.8754862 
H    -2.2974025    1.1134884   -8.3206603 
O     1.7645279   -0.2873746   -3.4553862 
N     0.7053309    1.8597628   -0.5046271 
H    -0.3268987    0.5736660   -1.8228548 
H     1.4113874    2.6339121   -0.5390172 
H    -0.1997772    2.2880371   -0.1988619 
N     2.7338943    0.0105944   -1.2560598 
C     4.0644809    0.5864895   -1.5629956 
H     2.7753734   -1.0332639   -1.2730644 
C     4.0607789    2.1138405   -1.4665778 
O     4.0972513    2.8894888   -2.6215418 
O     4.0126328    2.7621987   -0.2346052 
H     3.8127096    2.1111578    0.5119947 
C     4.6134586    0.0697999   -2.9211809 
H     4.7614623    0.2484419   -0.7636454 
C     6.1023162    0.3056238   -3.0504916 
H     4.0764890    0.5694584   -3.7612649 
H     4.3909521   -1.0124671   -3.0399184 
C     7.0808830   -0.4838857   -2.5814749 
C     7.0021516   -1.6670247   -1.9196060 
C     8.1626392   -2.2731564   -1.5370706 
C     9.3695319   -1.6930864   -1.8152297 
C     9.4234192   -0.5022878   -2.4769806 
C     8.2618878    0.0761645   -2.8474889 
H     6.0454554   -2.1278428   -1.6921816 
H     8.1283017   -3.2217164   -1.0061722 
H    10.2899734   -2.1815935   -1.5048871 
H    10.3722809   -0.0261222   -2.7002891 
N     8.0958677    1.3134436   -3.5248532 
C     6.6655795    1.3924166   -3.6095682 
H     8.8220659    1.9822040   -3.8709468 
H     6.1155375    2.2334161   -4.0352501 
