48
Energy =
C    -0.8316890   -4.9483912   -1.5039122 
C    -0.2638964   -3.8700587   -2.1013130 
C    -0.8115698   -5.0691136   -0.1494987 
C    -0.2210698   -4.1091853    0.5981092 
C     0.3477604   -3.0286300    0.0061941 
C     0.3251231   -2.9000560   -1.3488633 
H    -0.2818477   -3.7899885   -3.1853342 
H    -0.2070391   -4.2188167    1.6768616 
H     0.8254091   -2.2729051    0.6241870 
H    -1.2994981   -5.7149216   -2.1120530 
C     0.9740763   -1.7079623   -2.0170285 
C     2.3862388   -2.0431201   -2.5480460 
H     1.0294369   -0.8487817   -1.3121312 
H     0.3260875   -1.3741898   -2.8584138 
C     2.9137814   -0.9343239   -3.4413988 
O    -1.3874605   -6.1677208    0.4972422 
H    -1.8063778   -6.8429691   -0.1325607 
O     3.0445340   -1.1535204   -4.8078978 
N     3.3121127   -2.3200808   -1.4341966 
H     2.3251385   -2.9428050   -3.2080024 
H     3.1853026   -1.6206296   -0.6635166 
H     3.0893134   -3.2590942   -1.0251674 
N     3.1155337    0.3926752   -2.9408756 
C     4.4493752    0.6905306   -2.3918686 
H     2.3192730    1.0679946   -2.9671970 
C     4.4156661    1.9136763   -1.4807914 
O     4.8184798    1.7900194   -0.1577027 
O     4.0099996    3.1680105   -1.9423810 
H     3.7026177    3.1357473   -2.9024479 
C     5.4514723    0.8580025   -3.5564582 
H     4.7810663   -0.1551039   -1.7447601 
C     6.8741490    0.9194504   -3.0505110 
H     5.2125082    1.7668819   -4.1499865 
H     5.3541205    0.0045680   -4.2674278 
C     7.6389252   -0.1219311   -2.6871241 
C     7.3616586   -1.4513732   -2.7003200 
C     8.3190043   -2.3160731   -2.2577700 
C     9.5227251   -1.8447741   -1.8107018 
C     9.7754215   -0.5047691   -1.8009214 
C     8.8134682    0.3304140   -2.2464850 
H     6.4010495   -1.8287812   -3.0417320 
H     8.1203276   -3.3853877   -2.2541232 
H    10.2783597   -2.5407369   -1.4548667 
H    10.7206991   -0.1137047   -1.4403601 
N     8.8623597    1.7496464   -2.2980053 
C     7.5607892    2.0522078   -2.8202357 
H     9.6422704    2.3942652   -2.0327318 
H     7.1710509    3.0595684   -2.9649417 
