48
Energy =
C    -2.3774261   -1.4005554   -2.3276018 
C    -1.2124355   -0.7555558   -2.0697683 
C    -3.3236161   -0.8149532   -3.1089787 
C    -3.0968789    0.4144126   -3.6256204 
C    -1.9325967    1.0640758   -3.3710775 
C    -0.9802922    0.4792539   -2.5942709 
H    -0.4671786   -1.2330447   -1.4400418 
H    -3.8611715    0.8714389   -4.2448451 
H    -1.7713775    2.0525890   -3.7926330 
H    -2.5502604   -2.3846270   -1.9060790 
C     0.3174873    1.1953125   -2.2975866 
C     0.3117185    1.8455272   -0.8910083 
H     0.5301700    1.9600626   -3.0764602 
H     1.1439397    0.4615638   -2.3725081 
C     1.7128649    2.1026572   -0.3575998 
O    -4.5349845   -1.4523003   -3.3955250 
H    -4.6337195   -2.3648415   -2.9643710 
O     1.9274922    2.1087353    1.0172058 
N    -0.4794231    3.0864595   -0.9057372 
H    -0.1371726    1.1390863   -0.1526916 
H    -0.1105318    3.7507014   -1.6261966 
H    -1.4751310    2.8691768   -1.1447725 
N     2.7821588    2.4990813   -1.2305351 
C     4.1161884    1.9192430   -0.9695953 
H     2.5660428    3.0877375   -2.0656534 
C     5.2169021    2.8052637   -1.5391217 
O     6.2234194    3.2600913   -0.6970828 
O     5.2789042    3.1346692   -2.8947748 
H     4.5213012    2.7253632   -3.4183588 
C     4.2149448    0.4822569   -1.5486099 
H     4.3214809    1.9171576    0.1259325 
C     3.3997678   -0.5600443   -0.7977806 
H     5.2766884    0.1456220   -1.5283986 
H     3.9078343    0.5186534   -2.6138180 
C     2.7281957   -1.5944808   -1.3395410 
C     2.5585392   -1.9428270   -2.6433724 
C     1.8142351   -3.0492005   -2.9297263 
C     1.2637803   -3.7912174   -1.9226693 
C     1.4559111   -3.4325306   -0.6223208 
C     2.1910175   -2.3307315   -0.3642121 
H     2.9955758   -1.3647058   -3.4506092 
H     1.6607839   -3.3447148   -3.9652841 
H     0.6754311   -4.6745399   -2.1595751 
H     1.0333979   -4.0148103    0.1898358 
N     2.5158698   -1.8016150    0.9104280 
C     3.3158104   -0.6709419    0.5434751 
H     2.2508743   -2.1423785    1.8635376 
H     3.7921087   -0.0111719    1.2646970 
