48
 energy: -9.362060920556 gnorm: 0.000397874297 xtb: 6.6.0 (2ccbbd7)
C            4.17045639236583        3.81564259795444        4.15984732298745
C            4.09047552518242        2.98924820340598        3.06466232799783
C            4.21459723484389        5.20149961444242        4.00144086595857
C            4.18120326167778        5.71963040056230        2.70699025198713
C            4.09908398171858        4.88550813734706        1.61825406554626
C            4.04049046100061        3.50934071813762        1.77994075326220
H            4.06397188776360        1.92245722973472        3.19813547390357
H            4.22414587949898        6.78722353422045        2.58401709670995
H            4.08796932230440        5.29462585940104        0.62252848000907
H            4.20144262947952        3.40101387663932        5.15150314411186
C            3.98024616474189        2.62131199305283        0.57943378764126
C            3.09741542630935        1.36243884414376        0.75154961554069
H            4.99999302736536        2.34968196145431        0.29978243599556
H            3.53628547487672        3.28185946064817       -0.33996990691074
C            2.24704590810774        1.10516447955320       -0.47110272412664
O            4.29237532697036        6.06161813650674        5.07975527731937
H            4.30177832475375        5.55154040267431        5.91808045602889
O            1.04843993219139        0.95564019166099       -0.33549223510069
N            3.84252359059404        0.15584423888799        1.14225871104007
H            2.38331010052484        1.56197831390136        1.56750991102375
H            3.99859774969751       -0.49190033968360        0.37705731548207
H            4.73806693977036        0.38142343841802        1.55777959954951
N            2.84985881398138        1.06870079767676       -1.70426428285369
C            4.29122769621222        1.18018267361137       -1.92252473452294
H            2.27701941033600        1.00841820320443       -2.54281339499087
C            4.69081737115236        2.61693189632374       -2.12541970008666
O            5.61800991054791        2.89380547193753       -2.85290631758763
O            3.93841086124194        3.58102151366682       -1.34584919023385
H            2.88165323321242        3.33659284196442       -1.21936885494224
C            4.74881090834508        0.22594786230691       -3.02091813776226
H            4.78763112293090        0.84466595989858       -1.00434365655447
C            4.56299407221280       -1.16910104315495       -2.52922210097805
H            5.79937498192393        0.40997549154116       -3.26721186843722
H            4.17585349445591        0.40030299147225       -3.93505319879200
C            3.34266884648379       -1.91296109692339       -2.55070688162453
C            2.12261492536032       -1.73239347374217       -3.22573007805612
C            1.10403017065928       -2.61301416216273       -2.98879805911147
C            1.25998679768384       -3.68086862213507       -2.09053517349408
C            2.43606855337942       -3.87521545806016       -1.41977167321293
C            3.49115401410934       -2.98304302967836       -1.64701033662712
H            2.00494131992838       -0.91439264909897       -3.91370836399575
H            0.16164025937034       -2.48355268478099       -3.49481244995190
H            0.43523010979951       -4.35370977670926       -1.92331601902757
H            2.56077606306872       -4.68323276985237       -0.72141981334744
N            4.75402846310264       -2.88499678082532       -1.09156350345855
C            5.39500561548795       -1.79906229890620       -1.63297321342810
H            5.13902270301709       -3.53841418904613       -0.40622082145445
H            6.37078381819447       -1.45004422696289       -1.33382503952433
