48
Energy =
C    -0.5129831    2.7712298    0.4241161 
C    -0.2881446    1.4645098    0.7130300 
C     0.4445283    3.7029849    0.6786816 
C     1.6226873    3.3191769    1.2195097 
C     1.8492429    2.0156667    1.5197901 
C     0.8923724    1.0790660    1.2704108 
H    -1.0579983    0.7294846    0.4923051 
H     2.3900857    4.0662963    1.3935901 
H     2.8097438    1.7274136    1.9417694 
H    -1.4587437    3.0688128   -0.0154774 
C     1.1584742   -0.3847313    1.5491260 
C     1.7127429   -1.1079729    0.3011443 
H     0.2151490   -0.8714185    1.8802064 
H     1.8775433   -0.4934440    2.3937166 
C     3.0965069   -0.5894976   -0.0653598 
O     0.2407222    5.0574246    0.3944965 
H    -0.6601063    5.2605633   -0.0231890 
O     4.1598875   -0.8184892    0.8080428 
N     1.7414165   -2.5601244    0.5336053 
H     1.0454944   -0.9078031   -0.5693772 
H     2.3706620   -2.7741335    1.3455306 
H     0.7828327   -2.9038978    0.7748869 
N     3.2645343    0.2544482   -1.2249846 
C     4.6030820    0.8880131   -1.3115757 
H     2.5413769    1.0098001   -1.1588076 
C     4.7584799    2.0841022   -0.3640609 
O     4.1375067    3.2903302   -0.6585042 
O     5.5068398    2.0086300    0.8100303 
H     5.8083830    1.0668929    1.0190553 
C     4.8973023    1.2637950   -2.7864322 
H     5.3951441    0.1575738   -1.0252399 
C     3.7631899    2.0042218   -3.4734919 
H     5.1124901    0.3340455   -3.3559665 
H     5.8251986    1.8764822   -2.8397779 
C     2.6998133    1.4569652   -4.0873163 
C     2.3664068    0.1506520   -4.2549474 
C     1.2101740   -0.1446078   -4.9151686 
C     0.4126698    0.8579548   -5.3933158 
C     0.7662067    2.1620786   -5.2123915 
C     1.9152060    2.4284064   -4.5567460 
H     2.9918129   -0.6473763   -3.8653904 
H     0.9200160   -1.1827501   -5.0582125 
H    -0.5082224    0.6148089   -5.9173274 
H     0.1435601    2.9699919   -5.5814108 
N     2.4539249    3.7070137   -4.2565286 
C     3.6489431    3.3426369   -3.5510131 
H     2.0878310    4.6571093   -4.4961393 
H     4.3426122    4.0546526   -3.1053972 
