48
Energy =
C    -1.6799933   -0.2670439   -7.8646374 
C    -1.4011505   -0.0101554   -6.5614994 
C    -1.2003252    0.5498183   -8.8403729 
C    -0.4438559    1.6192389   -8.5045390 
C    -0.1617568    1.8810654   -7.2032182 
C    -0.6421709    1.0683396   -6.2225532 
H    -1.7872864   -0.6756572   -5.7935775 
H    -0.0667345    2.2620574   -9.2923575 
H     0.4501396    2.7441520   -6.9534058 
H    -2.2861233   -1.1281978   -8.1244366 
C    -0.3134090    1.3502571   -4.7732809 
C     1.1173213    0.9014473   -4.3973284 
H    -1.0471823    0.8600908   -4.0939477 
H    -0.4237052    2.4422608   -4.5865959 
C     1.4809529    1.4091247   -3.0151457 
O    -1.4674626    0.3126962  -10.1926505 
H    -2.0455385   -0.5032567  -10.3617780 
O     0.6726068    1.1066343   -1.9237113 
N     1.2427337   -0.5674716   -4.4636620 
H     1.8457410    1.3711073   -5.1001836 
H     0.4754088   -1.0006314   -3.8935636 
H     1.1073201   -0.8831071   -5.4534348 
N     2.7212455    2.0962423   -2.7938244 
C     3.6439837    1.2527054   -1.9964728 
H     2.4501892    2.9416664   -2.2375132 
C     4.6385559    2.1054838   -1.2024531 
O     5.8793949    2.4306693   -1.7389718 
O     4.3061680    2.6176318    0.0513602 
H     3.3516456    2.4071911    0.3061144 
C     4.3581130    0.2509365   -2.9444865 
H     3.0735697    0.6883135   -1.2165459 
C     4.5885777   -1.0805988   -2.2704789 
H     5.3074263    0.6685341   -3.3439668 
H     3.7416298    0.0749729   -3.8512610 
C     5.6953702   -1.4923735   -1.6324701 
C     6.8863160   -0.8650100   -1.4546717 
C     7.8583246   -1.5083187   -0.7467102 
C     7.6287062   -2.7539971   -0.2315676 
C     6.4241020   -3.3637358   -0.4199004 
C     5.4786563   -2.7078197   -1.1250222 
H     7.0732501    0.1271079   -1.8547963 
H     8.8189979   -1.0238168   -0.5870739 
H     8.4081184   -3.2575805    0.3348909 
H     6.2237683   -4.3486906   -0.0120998 
N     4.1614675   -3.1551635   -1.4172663 
C     3.6490778   -2.0354422   -2.1551791 
H     3.7017780   -4.0594563   -1.1597838 
H     2.6293942   -1.9474204   -2.5376235 
