48
Energy =
C     1.6839025    6.2265196   -5.4386292 
C     1.9599526    5.2576784   -4.5285405 
C     0.4879215    6.8723985   -5.4084251 
C    -0.4253088    6.5441937   -4.4665787 
C    -0.1562870    5.5762419   -3.5540737 
C     1.0402973    4.9279881   -3.5778919 
H     2.9250351    4.7492515   -4.5689949 
H    -1.3755668    7.0668960   -4.4544625 
H    -0.9063256    5.3259173   -2.8081351 
H     2.4222365    6.4822850   -6.1916068 
C     1.3399621    3.8356455   -2.5753560 
C     1.1044999    2.4236858   -3.1710048 
H     0.7312157    3.9633513   -1.6525286 
H     2.3955517    3.9471596   -2.2352099 
C     1.8555685    1.3667848   -2.3784487 
O     0.1720439    7.8737656   -6.3319618 
H     0.9088797    8.0627205   -7.0029351 
O     1.7131229    1.3042102   -0.9967460 
N    -0.3353216    2.1151691   -3.2225043 
H     1.5218606    2.3783079   -4.2063911 
H    -0.7503013    2.1661942   -2.2601785 
H    -0.8313711    2.8145730   -3.8237150 
N     2.9071728    0.6177550   -2.9988864 
C     4.2689550    1.1701175   -2.8762198 
H     2.6736641   -0.2836911   -3.4725550 
C     4.4114024    2.4563013   -3.6803546 
O     4.8290372    3.6171312   -3.0453129 
O     4.0263925    2.5387909   -5.0193260 
H     3.7781056    1.6298898   -5.3857440 
C     5.2912343    0.0953000   -3.3008973 
H     4.4604232    1.4410390   -1.8097270 
C     6.7091919    0.5100166   -2.9699169 
H     5.1956185   -0.1289641   -4.3851611 
H     5.0647380   -0.8528090   -2.7634476 
C     7.5693566    1.1708654   -3.7624896 
C     7.4205123    1.6103856   -5.0388211 
C     8.4608681    2.2708584   -5.6229456 
C     9.6221080    2.4798160   -4.9318812 
C     9.7490832    2.0310580   -3.6509262 
C     8.7056154    1.3803956   -3.0946721 
H     6.4970637    1.4560655   -5.5881741 
H     8.3618456    2.6388427   -6.6411830 
H    10.4448046    3.0109506   -5.4035625 
H    10.6609204    2.1934861   -3.0866901 
N     8.6300698    0.8467261   -1.7800660 
C     7.3018044    0.3077903   -1.7796494 
H     9.3514817    0.8452258   -1.0231551 
H     6.8372633   -0.1817865   -0.9267945 
