48
Energy =
C     2.1966531    4.4492064    0.3816062 
C     2.0526603    3.1956201    0.8806521 
C     3.2583372    5.2132071    0.7492119 
C     4.1659109    4.7197416    1.6210823 
C     4.0340989    3.4620221    2.1125897 
C     2.9817703    2.6832122    1.7353287 
H     1.1981246    2.5997342    0.5717700 
H     5.0075143    5.3404625    1.9088302 
H     4.7854861    3.0750731    2.7963178 
H     1.4694988    4.8323636   -0.3273016 
C     2.8626008    1.2615287    2.2599047 
C     3.6874519    0.2134267    1.4668112 
H     1.7951666    0.9485722    2.2909613 
H     3.2081629    1.2466089    3.3170726 
C     3.0187241   -0.2825652    0.1899001 
O     3.4417462    6.5059245    0.2484486 
H     2.7781366    6.7625635   -0.4761545 
O     2.8973460   -1.6550553   -0.0070946 
N     5.0496345    0.7062199    1.2229510 
H     3.7556962   -0.6991882    2.1053838 
H     5.1986267    1.4557044    0.5084455 
H     5.8384096    0.2806482    1.7628538 
N     2.2190432    0.5886268   -0.6206612 
C     2.9742550    1.1098751   -1.7783114 
H     1.3940217    0.0356746   -0.9511276 
C     2.2946002    2.3757547   -2.3058502 
O     0.9220320    2.3716928   -2.5326743 
O     3.0049121    3.5459444   -2.5849443 
H     3.9956790    3.4388224   -2.4220439 
C     3.0825993    0.0410598   -2.8912767 
H     4.0013904    1.3852753   -1.4520214 
C     4.0943571    0.4372661   -3.9428304 
H     2.0851166   -0.1350340   -3.3501632 
H     3.3935107   -0.9305177   -2.4503210 
C     3.8655090    1.1216716   -5.0754785 
C     2.7028187    1.6037009   -5.5853918 
C     2.7458258    2.2838919   -6.7665132 
C     3.9356071    2.4704261   -7.4140178 
C     5.0910162    1.9799808   -6.8823161 
C     5.0229104    1.3103415   -5.7124725 
H     1.7560717    1.4711853   -5.0695976 
H     1.8288336    2.6873945   -7.1893895 
H     3.9607349    3.0185003   -8.3524170 
H     6.0436787    2.1258443   -7.3797208 
N     6.1028075    0.7374895   -4.9874422 
C     5.4141949    0.1994588   -3.8495824 
H     7.1205527    0.7188398   -5.2288072 
H     5.8942733   -0.3121217   -3.0153991 
