48
Energy =
C     0.8790145    3.9511425   -4.2924377 
C     0.6000007    2.6606718   -3.9748949 
C    -0.0007524    4.9377009   -3.9801070 
C    -1.1533260    4.6273073   -3.3448833 
C    -1.4290901    3.3416970   -3.0084882 
C    -0.5510469    2.3487237   -3.3210862 
H     1.3178470    1.8813380   -4.2231672 
H    -1.8453156    5.4239710   -3.0963404 
H    -2.3504937    3.1175577   -2.4786352 
H     1.8162352    4.1954541   -4.7793303 
C    -0.8303290    0.9188881   -2.9050217 
C    -0.0327049    0.4780081   -1.6498209 
H    -0.5958589    0.2368063   -3.7536935 
H    -1.9154132    0.7831422   -2.7047592 
C     1.4487067    0.2811757   -1.9446407 
O     0.2531092    6.2755418   -4.3010201 
H     1.1730760    6.4373490   -4.6955985 
O     1.7871444   -0.5810590   -2.9839748 
N    -0.2723451    1.3994685   -0.5232467 
H    -0.3878389   -0.5355807   -1.3555765 
H     0.1697865    2.3279375   -0.7288662 
H    -1.2990908    1.5632529   -0.4065631 
N     2.4174483    0.5019609   -0.9059169 
C     3.6651664    1.1481806   -1.3828626 
H     2.6099978   -0.4303478   -0.4763919 
C     3.4024316    2.4967168   -2.0602365 
O     3.7234334    2.6907531   -3.4000676 
O     2.8349041    3.5577939   -1.3586565 
H     2.5586576    3.2732280   -0.4288386 
C     4.5115163    0.1747712   -2.2505453 
H     4.2556329    1.4080908   -0.4764484 
C     5.9743798    0.5693546   -2.2938876 
H     4.0837609    0.1123337   -3.2738553 
H     4.4402486   -0.8559483   -1.8428490 
C     6.6620183    1.0691005   -3.3370218 
C     6.2575349    1.3479790   -4.6043087 
C     7.1718993    1.8507758   -5.4825611 
C     8.4638896    2.0622825   -5.0899010 
C     8.8499836    1.7727969   -3.8156373 
C     7.9271248    1.2785277   -2.9639283 
H     5.2333017    1.1896313   -4.9257048 
H     6.8693875    2.0885439   -6.4997129 
H     9.1856921    2.4651688   -5.7960975 
H     9.8714686    1.9346953   -3.4883533 
N     8.1273637    0.9085016   -1.6075545 
C     6.8156215    0.4589042   -1.2493825 
H     8.9994944    0.9495899   -1.0315911 
H     6.5453080    0.0808229   -0.2658188 
