48
Energy =
C    -0.5302811    4.6325089   -0.3994224 
C     0.2676880    3.7770824    0.2868794 
C    -0.3671143    5.9756284   -0.2660841 
C     0.5964085    6.4531844    0.5539972 
C     1.4000157    5.6020391    1.2406306 
C     1.2427952    4.2556788    1.1092354 
H     0.1208467    2.7059253    0.1693485 
H     0.7160491    7.5267919    0.6519784 
H     2.1693026    6.0068712    1.8928566 
H    -1.2994478    4.2387658   -1.0545892 
C     2.1456137    3.2997433    1.8655266 
C     3.3280929    2.7565129    1.0243552 
H     1.5345429    2.4395262    2.2256665 
H     2.5415062    3.7879855    2.7829278 
C     2.8588693    1.9545739   -0.1852753 
O    -1.1744610    6.8860282   -0.9564814 
H    -1.8593989    6.4522654   -1.5662666 
O     2.1805685    0.7631679    0.0406870 
N     4.2774873    3.8318249    0.6817956 
H     3.8625504    2.0013600    1.6490145 
H     3.7692000    4.6458149    0.2640210 
H     4.7219479    4.1882817    1.5613223 
N     2.9367824    2.4544954   -1.5327362 
C     4.2649289    2.1770665   -2.1331243 
H     2.7129677    3.4751160   -1.5120602 
C     4.6498901    3.2095491   -3.1973329 
O     4.8024434    2.8452695   -4.5279952 
O     4.9288275    4.5306290   -2.8473368 
H     4.8781564    4.6799506   -1.8523059 
C     4.3036683    0.7132284   -2.6532133 
H     5.0735231    2.2837670   -1.3718187 
C     3.2160774    0.3901447   -3.6676335 
H     4.1776465    0.0220434   -1.7905353 
H     5.3084550    0.4951128   -3.0704558 
C     3.3662688    0.1464233   -4.9839513 
C     4.4841809    0.1561029   -5.7572383 
C     4.3625820   -0.1428017   -7.0827873 
C     3.1406015   -0.4501298   -7.6120169 
C     2.0323170   -0.4574639   -6.8196012 
C     2.1771912   -0.1536744   -5.5127320 
H     5.4542632    0.4173690   -5.3484033 
H     5.2412931   -0.1277998   -7.7229971 
H     3.0510207   -0.6846808   -8.6696796 
H     1.0548344   -0.6989386   -7.2228496 
N     1.1569635   -0.1207737   -4.5272209 
C     1.9138407    0.2347267   -3.3627308 
H     0.1333786   -0.3116714   -4.6221056 
H     1.4901042    0.3408921   -2.3669036 
