48
 energy: -9.067467450334 gnorm: 0.000560104770 xtb: 6.6.0 (2ccbbd7)
C            1.45576702587389        7.84430920586458       -3.45158883506713
C            1.41078828323847        6.70929499420822       -2.67669321958203
C            2.26294952100982        7.89720290902413       -4.58866140580007
C            3.01540138211458        6.76999001050296       -4.91764528751093
C            2.96478917223768        5.63981285163787       -4.13840888153808
C            2.16689449988114        5.59287593041079       -3.00477974334275
H            0.78055163203667        6.67872019842278       -1.80436434501815
H            3.63089024939304        6.80625527404413       -5.79878869783170
H            3.53943119677819        4.76979945496983       -4.40991310068124
H            0.86670293673312        8.70462657739868       -3.18843522708899
C            2.09146563958080        4.34046211973453       -2.18840064700084
C            1.37802448216335        3.20396313557591       -2.92432396961904
H            1.56796423656188        4.53350535747203       -1.24756567209194
H            3.10257363183850        4.03202071868022       -1.90733730876359
C            1.44283191132521        1.91541146059362       -2.13426365144559
O            2.33398843716699        9.02415399692099       -5.38568668106396
H            1.74845202913573        9.72590265865002       -5.02740558447450
O            0.55170375685295        1.71521284198102       -1.33330635101672
N           -0.02016173306728        3.51632647652068       -3.18271248636463
H            1.84786981684697        3.05218919248580       -3.90638372268559
H           -0.54769175135538        3.32144006667082       -2.33529789860443
H           -0.13501058379951        4.49402214119083       -3.42077444310152
N            2.47594112515980        1.00961331630394       -2.30605740027911
C            3.80758943117408        1.35220745489730       -2.84151017169980
H            2.49024374877369        0.20856545930669       -1.68008116475683
C            3.69349900830651        1.89345219327840       -4.23288420868489
O            4.49540587741812        2.93220401486864       -4.60853959306328
O            2.76473212825640        1.31524180973532       -5.06576831415372
H            2.24110176026224        0.64559477632207       -4.56653783020804
C            4.77327801229231        0.14908403792146       -2.79272619515011
H            4.20906676256003        2.14321564758113       -2.19359026780233
C            6.19558488760724        0.49195667873877       -2.47497534994271
H            4.72922942574756       -0.38783557542397       -3.74552297006531
H            4.42103443163917       -0.56326191540564       -2.03948644581939
C            6.94965286233676        1.63557440219508       -2.88120736425002
C            6.64737952279632        2.76454270969260       -3.65296654129875
C            7.60707871241128        3.70801167043081       -3.86612001233732
C            8.89447159106917        3.56491985230538       -3.32361141650019
C            9.22257019517922        2.47277499488723       -2.56797234773374
C            8.24497573564353        1.49491534995865       -2.34184355272462
H            5.52830948722886        2.86462598488372       -4.14378033503191
H            7.37364968297610        4.57292299346520       -4.46434879227838
H            9.63377725438284        4.32624492081699       -3.50949720690783
H           10.20566164670112        2.35104551984400       -2.14990155626195
N            8.27579876373484        0.30368248292587       -1.64125849318620
C            7.04337120067059       -0.29350417361701       -1.73226068124130
H            9.09439619943647       -0.06297583693071       -1.15213911258266
H            6.78502603051452       -1.23825595223907       -1.28182740994866
