48
Energy =
C    -1.1113602    5.6696357   -2.5552304 
C    -0.1238435    4.8376285   -2.1754412 
C    -0.8781753    6.7042298   -3.3701237 
C     0.3337706    6.9471326   -3.8481382 
C     1.3165181    6.1756900   -3.5010642 
C     1.1425750    5.0852312   -2.6190129 
H    -0.3952656    3.9740469   -1.5299007 
H     0.5267774    7.7689239   -4.5106870 
H     2.3526064    6.3850811   -3.8929831 
H    -2.1731657    5.4916712   -2.1898667 
C     2.2667239    4.0588530   -2.2145937 
C     2.3885425    3.7448422   -0.6738698 
H     3.2765625    4.3780113   -2.5740044 
H     2.0331035    3.1130531   -2.7498294 
C     3.1726657    2.4260612   -0.2538419 
O    -1.8584748    7.5572800   -3.7586818 
H    -2.8388687    7.4177273   -3.4284845 
O     3.4906195    2.2483013    1.0820596 
N     2.9581191    4.9425323    0.0065464 
H     1.3691885    3.5421913   -0.2470039 
H     3.1670248    5.8061064    0.6345890 
H     2.8490090    4.5448051    0.9583507 
N     3.6728597    1.3917885   -1.1356998 
C     3.8026633    0.0479670   -0.4564904 
H     2.9616036    1.2507914   -1.8930890 
C     4.6833531   -0.0239231    0.8582449 
O     5.9166739    0.6207430    0.9106331 
O     4.2685819   -0.7785602    1.9608266 
H     3.4085149   -1.2933097    1.8085440 
C     4.2948128   -0.9591629   -1.5282547 
H     2.7795655   -0.2815525   -0.1556465 
C     4.4407888   -2.3706121   -0.9816413 
H     5.2550995   -0.6169911   -1.9743962 
H     3.5697681   -1.0076806   -2.3749282 
C     5.5794745   -2.9808248   -0.5966980 
C     6.8700766   -2.5547267   -0.6650846 
C     7.8481623   -3.3760431   -0.1851595 
C     7.5287541   -4.5930578    0.3485119 
C     6.2309959   -5.0031419    0.3991407 
C     5.2813686   -4.1764415   -0.0835611 
H     7.1494527   -1.6156617   -1.1275878 
H     8.8962362   -3.0824822   -0.2466416 
H     8.3166498   -5.2505450    0.7174530 
H     5.9671505   -5.9760230    0.8074738 
N     3.8828345   -4.4094104   -0.1255431 
C     3.4105403   -3.2022501   -0.7299139 
H     3.3560832   -5.2433119    0.2383801 
H     2.3640561   -3.0244884   -0.9787533 
