48
Energy =
C     0.0032178   -4.5513814   -1.5954272 
C     0.6945620   -3.3834396   -1.6532582 
C    -1.2787346   -4.5642220   -1.1440668 
C    -1.8605350   -3.4081933   -0.7532437 
C    -1.1747214   -2.2386310   -0.8117130 
C     0.1092424   -2.2172060   -1.2669199 
H     1.7189208   -3.3829498   -2.0189895 
H    -2.8833666   -3.4316733   -0.3934635 
H    -1.6617498   -1.3215476   -0.4918339 
H     0.4760990   -5.4744310   -1.9135179 
C     0.8739314   -0.9071042   -1.3339749 
C     0.7733594   -0.1548583   -2.6914234 
H     1.9459220   -1.0805060   -1.0873500 
H     0.5024870   -0.2305821   -0.5323035 
C     1.7451506   -0.6542814   -3.7525768 
O    -2.0180857   -5.7489804   -1.0707567 
H    -1.5170603   -6.5697043   -1.3927574 
O     2.0364948   -2.0063372   -3.8978306 
N    -0.6064257   -0.1140501   -3.2022449 
H     1.0934689    0.8949690   -2.4922868 
H    -0.9090472   -1.0809617   -3.4731371 
H    -1.2510187    0.2259609   -2.4517705 
N     2.3516652    0.2770937   -4.6521428 
C     3.8182950    0.3903163   -4.5871063 
H     1.7386653    0.8171463   -5.3025443 
C     4.2660126    0.9867393   -3.2534617 
O     3.5921932    2.0860979   -2.7310810 
O     5.3716305    0.4912920   -2.5601662 
H     5.8192549   -0.2668159   -3.0549515 
C     4.3106103    1.2338535   -5.7803858 
H     4.2517003   -0.6320179   -4.6796927 
C     5.8200588    1.2284352   -5.8860887 
H     3.9252209    2.2746165   -5.7024018 
H     3.8891280    0.8112670   -6.7197700 
C     6.6756665    2.1142876   -5.3498128 
C     6.4314967    3.2328114   -4.6189167 
C     7.4949778    3.9632823   -4.1768432 
C     8.7720947    3.5705245   -4.4677921 
C     8.9935977    2.4428821   -5.2011321 
C     7.9251859    1.7371066   -5.6275461 
H     5.4198836    3.5438150   -4.3757926 
H     7.3250130    4.8587980   -3.5837301 
H     9.6141111    4.1563812   -4.1077539 
H    10.0002198    2.1137988   -5.4353627 
N     7.9377258    0.5350737   -6.3846696 
C     6.5342573    0.2704017   -6.5022601 
H     8.7502415   -0.0092963   -6.7547240 
H     6.1121630   -0.5955121   -7.0071072 
