48
Energy =
C    -2.0550582    1.1480528   -5.2604702 
C    -1.6973262    0.5883954   -4.0772093 
C    -1.4313986    2.2733055   -5.7009393 
C    -0.4498575    2.8291718   -4.9546602 
C    -0.0919258    2.2770218   -3.7679510 
C    -0.7189564    1.1544367   -3.3178091 
H    -2.1957337   -0.3178453   -3.7443384 
H     0.0523724    3.7178537   -5.3231803 
H     0.7105618    2.7329181   -3.1936074 
H    -2.8376452    0.6907865   -5.8560102 
C    -0.2970529    0.5119343   -2.0121829 
C     0.7801167   -0.5762743   -2.2300109 
H    -1.1845046    0.0545633   -1.5219398 
H     0.0710256    1.2885868   -1.3077451 
C     2.0325800   -0.0290807   -2.8985653 
O    -1.7804206    2.8764890   -6.9136033 
H    -2.5057473    2.3868402   -7.4253724 
O     2.1776187   -0.2194515   -4.2685414 
N     1.0941257   -1.2364551   -0.9511282 
H     0.3800101   -1.3395205   -2.9402430 
H     1.3323083   -0.5289486   -0.2169405 
H     0.2530321   -1.7624265   -0.6138798 
N     2.8655500    0.9277212   -2.2131324 
C     4.2556583    1.2183296   -2.6342507 
H     2.4837464    1.3838142   -1.3564615 
C     4.3437058    2.5405327   -3.3908537 
O     5.1645381    3.5457141   -2.8953337 
O     3.6513807    2.7737616   -4.5785973 
H     3.0563051    1.9943404   -4.8230344 
C     4.9224121    0.0469965   -3.3992686 
H     4.8470346    1.3801660   -1.7034220 
C     6.4262275    0.2033300   -3.4434342 
H     4.5380974   -0.0078593   -4.4427082 
H     4.6549130   -0.9212837   -2.9239319 
C     7.3090611   -0.2402487   -2.5346144 
C     7.1039562   -0.9476979   -1.3936497 
C     8.1859933   -1.2691992   -0.6277414 
C     9.4410526   -0.8795400   -1.0065373 
C     9.6216930   -0.1645148   -2.1532812 
C     8.5361727    0.1380607   -2.8957960 
H     6.1082056   -1.2520059   -1.0860082 
H     8.0496512   -1.8355867    0.2904252 
H    10.2980435   -1.1368915   -0.3890873 
H    10.6091974    0.1589098   -2.4645190 
N     8.5024594    0.8849173   -4.1036190 
C     7.0961817    0.8900733   -4.3861529 
H     9.2916609    1.3094263   -4.6429954 
H     6.6346257    1.4169577   -5.2222993 
