48
Energy =
C    -2.5062164   -0.9087959    0.5045116 
C    -1.4371267   -0.2263511    0.0226059 
C    -3.3821999   -0.2999675    1.3477455 
C    -3.1827777    0.9901039    1.7014098 
C    -2.1153715    1.6779385    1.2223126 
C    -1.2322277    1.0710798    0.3830581 
H    -0.7511563   -0.7250507   -0.6566478 
H    -3.8910252    1.4649843    2.3717024 
H    -1.9754548    2.7157516    1.5142711 
H    -2.6599853   -1.9417488    0.2118454 
C    -0.0529377    1.8425314   -0.1654928 
C    -0.4510556    2.7446899   -1.3548865 
H     0.7549965    1.1480349   -0.4715059 
H     0.3756740    2.4694307    0.6494808 
C     0.6975204    3.6496377   -1.7620687 
O    -4.4934967   -0.9749840    1.8628006 
H    -4.5748384   -1.9354668    1.5478201 
O     0.7325208    4.9565453   -1.2885771 
N    -0.9342382    1.9416522   -2.4928738 
H    -1.2610828    3.4416212   -1.0286225 
H    -0.2947918    1.1351401   -2.6783051 
H    -1.8781000    1.5456478   -2.2683444 
N     1.8048325    3.1563734   -2.5286977 
C     3.1339789    3.1741880   -1.8879638 
H     1.6012913    2.6387378   -3.4132428 
C     4.0826496    4.1319227   -2.6067417 
O     3.9496152    4.3530998   -3.9731600 
O     5.1822230    4.6884228   -1.9497218 
H     5.1760095    4.4929964   -0.9596813 
C     3.7133373    1.7406742   -1.8025342 
H     3.0474653    3.5608003   -0.8460429 
C     3.8454742    1.0538339   -3.1516060 
H     3.0848915    1.1378408   -1.1176386 
H     4.7189021    1.7774297   -1.3262147 
C     3.0718081    0.0684350   -3.6423707 
C     2.0115022   -0.5733009   -3.0849668 
C     1.3858091   -1.5455477   -3.8078853 
C     1.8252927   -1.8637759   -5.0623105 
C     2.8948454   -1.2131369   -5.6005249 
C     3.4967232   -0.2544816   -4.8659586 
H     1.6597772   -0.3330596   -2.0901275 
H     0.5330693   -2.0712305   -3.3850081 
H     1.3207686   -2.6392617   -5.6333956 
H     3.2569414   -1.4540365   -6.5943937 
N     4.6161772    0.5329962   -5.2410426 
C     4.7784961    1.3530341   -4.0755706 
H     5.1764350    0.5107832   -6.1244299 
H     5.5381771    2.1279581   -3.9700850 
