48
Energy =
C    -4.2810313   -0.3514069   -2.1166368 
C    -3.0810477    0.1169998   -2.5436759 
C    -4.7150287   -0.0726702   -0.8583692 
C    -3.9435689    0.6733495   -0.0354295 
C    -2.7426233    1.1444825   -0.4570160 
C    -2.3061056    0.8721685   -1.7173271 
H    -2.7448073   -0.1173884   -3.5512362 
H    -4.3005460    0.8864184    0.9661385 
H    -2.1357260    1.7368953    0.2220760 
H    -4.8913593   -0.9507928   -2.7835546 
C    -0.9603749    1.3753722   -2.1889959 
C     0.1277019    0.2810093   -2.0992137 
H    -0.6527374    2.2750184   -1.6134661 
H    -1.0542292    1.7145621   -3.2476035 
C     1.3864752    0.7061505   -2.8318114 
O    -5.9454669   -0.5410263   -0.3860328 
H    -6.4643313   -1.0887840   -1.0637853 
O     1.5418517    0.2996918   -4.1520187 
N     0.4090003   -0.0752127   -0.6956391 
H    -0.2223221   -0.6265263   -2.6491112 
H     0.4962708    0.7823408   -0.1027591 
H    -0.3946304   -0.6295391   -0.3143232 
N     2.2675385    1.6976704   -2.2668846 
C     3.6586895    1.8639030   -2.7437585 
H     1.9231912    2.2547226   -1.4557211 
C     3.7561484    2.9429487   -3.8231077 
O     2.7649086    3.0667434   -4.7874813 
O     4.8568228    3.8007750   -3.8949171 
H     5.5495153    3.6019305   -3.1885726 
C     4.2943188    0.5207356   -3.1820842 
H     4.2441265    2.2386948   -1.8750242 
C     5.8018707    0.6079993   -3.2648786 
H     3.8850080    0.1946827   -4.1638192 
H     4.0138258   -0.2725093   -2.4546095 
C     6.5367591    0.9386522   -4.3400332 
C     6.1460711    1.2536512   -5.6023018 
C     7.1064865    1.5676172   -6.5182774 
C     8.4273741    1.5624007   -6.1645340 
C     8.7960587    1.2459726   -4.8908189 
C     7.8275245    0.9388993   -4.0024643 
H     5.0972868    1.2738233   -5.8866779 
H     6.8178006    1.8313141   -7.5332605 
H     9.1857222    1.8180477   -6.9004190 
H     9.8388854    1.2435972   -4.5924217 
N     7.9946708    0.5996438   -2.6329485 
C     6.6340038    0.4064988   -2.2284250 
H     8.8742325    0.5170015   -2.0732486 
H     6.3258898    0.1428419   -1.2192347 
