48
Energy =
C     2.9270283    5.1430950    1.9418846 
C     1.7769889    4.8106388    1.3060669 
C     4.1280737    4.8368264    1.3881419 
C     4.1747368    4.1890183    0.2073642 
C     3.0281644    3.7940864   -0.4263554 
C     1.8108804    4.1518145    0.1168452 
H     0.8239918    5.0784730    1.7559554 
H     5.1460301    3.9934405   -0.2251434 
H     3.1219867    3.2942081   -1.6405873 
H     2.8816632    5.6674205    2.8903087 
C     0.4972350    3.7941608   -0.5645141 
C     0.6330938    2.8201829   -1.7628405 
H     0.0025427    4.7281189   -0.9084907 
H    -0.1658416    3.3218344    0.1947852 
C     1.6387625    1.7191138   -1.4488631 
O     5.3345454    5.1838578    2.0044254 
H     5.2186007    5.6774010    2.8840023 
O     1.1859011    0.5087678   -0.9232865 
N    -0.6867967    2.2851404   -2.1347984 
H     1.0472460    3.3673897   -2.6421606 
H    -1.0641626    1.7005853   -1.3507427 
H    -1.3559859    3.0730981   -2.2957888 
N     3.0142549    2.1093674   -1.1603023 
C     4.0531648    1.4071312   -1.9873888 
H     3.1784361    1.6446568   -0.2001011 
C     4.1281105    1.9289273   -3.4280722 
O     2.9592719    2.2008398   -4.1225639 
O     5.3461275    2.1123433   -4.0792363 
H     6.1326713    1.7889121   -3.5368952 
C     3.8474726   -0.1324939   -1.9825215 
H     5.0475001    1.6208809   -1.5311229 
C     5.0486450   -0.8706348   -2.5307276 
H     2.9341741   -0.3988144   -2.5636216 
H     3.6495406   -0.4895369   -0.9478864 
C     5.2682760   -1.2292605   -3.8070645 
C     4.4962700   -1.0517273   -4.9106331 
C     4.9632349   -1.5073805   -6.1082232 
C     6.1796924   -2.1270719   -6.1854802 
C     6.9389282   -2.2916931   -5.0653430 
C     6.4557229   -1.8318079   -3.8920740 
H     3.5360139   -0.5450571   -4.8602008 
H     4.3673995   -1.3674976   -7.0074285 
H     6.5457435   -2.4829443   -7.1453577 
H     7.9090163   -2.7748317   -5.1108301 
N     7.0894384   -1.8880992   -2.6216620 
C     6.1137500   -1.2392771   -1.7977237 
H     8.0186648   -2.2921244   -2.3623281 
H     6.2301158   -1.0680264   -0.7300826 
