48
 energy: -8.968207421758 gnorm: 0.000713429760 xtb: 6.6.0 (2ccbbd7)
C           -3.13704338484183       -1.24654678979022        1.24289312962113
C           -1.85367226429189       -1.08716349141726        0.77555530219061
C           -4.14039132177725       -1.74082220494665        0.40860846829810
C           -3.80583419062531       -2.06655580972461       -0.90541849624574
C           -2.52073197763035       -1.90450541748826       -1.36522642812895
C           -1.52460273637854       -1.41708283885426       -0.53099255390380
H           -1.08785025166543       -0.69856824012832        1.42468482940945
H           -4.57898575731407       -2.44651092480684       -1.54881882724423
H           -2.27772774490903       -2.15741243457150       -2.38297446658674
H           -3.38079263442855       -0.98872033365758        2.25789624683160
C           -0.13548517416867       -1.19545618172492       -1.04365282375226
C            0.16433746774328        0.27352548612576       -1.31923912744196
H            0.01394236449040       -1.76126166523826       -1.96857450487250
H            0.59360026231014       -1.59863285246174       -0.33316320418846
C            1.54764598821687        0.45887346022254       -1.98980801113531
O           -5.44052622747130       -1.91102416153798        0.84650713255088
H           -5.51461003545227       -1.64338216915179        1.78815413376561
O            1.71310319584476       -0.46568487567052       -3.10256285102864
N           -0.81518704295402        0.89113440535417       -2.29637892250946
H            0.14484542031037        0.84691680862875       -0.38279212914777
H           -1.25443755748961        0.13797831850073       -2.85592299905151
H           -1.58628004415781        1.38708574754499       -1.80606436246378
N            2.72442552314621        0.53012797534657       -1.08375822897156
C            4.03877262842877        0.98955135569771       -1.59001843651856
H            2.47469991851775        1.17776616477767       -0.32625316124119
C            4.04173936745877        2.50829509211636       -1.65828965104708
O            3.12968124600812        3.08619801696413       -1.10590887500744
O            5.05619722130650        3.12883956300514       -2.31290518499436
H            5.71954556377189        2.48774861507138       -2.64721349969623
C            4.47889232381802        0.31345545995330       -2.90200865822624
H            4.76606292670225        0.71471310554458       -0.80964734344209
C            3.63138126986811        0.65398128342644       -4.07277581750338
H            4.43358383954118       -0.77165760992925       -2.76163481380614
H            5.52391101054221        0.54216302696349       -3.13029055366554
C            2.12944075756423        0.63600318849289       -3.96122360077301
C            1.41600985805242        1.63790487855939       -3.00705305269698
C           -0.08842392300540        1.83139507999663       -3.28097483681732
C           -0.50972352379036        1.58314590144313       -4.69940928460049
C            0.30604634536104        1.07552998367127       -5.66562519674680
C            1.60454896674788        0.66685392295832       -5.37100677685618
H            1.99057471653081        2.53783368515865       -2.75646235753419
H           -0.32666867346311        3.08558210490174       -3.07888611257700
H           -1.51363937455630        1.86613711932350       -4.96540383177876
H           -0.02635483155895        1.03138484629254       -6.68845916464822
N            2.73364966683370        0.57994166381162       -6.15955201656544
C            3.91618873936420        0.56964149955202       -5.39294062447213
H            2.72769838072723        0.72050480946853       -7.16988058134060
H            4.90294592880278        0.44111099483586       -5.80482073722098
