48
Energy =
C     0.9963417   -2.8056341   -3.0751420 
C     0.9834926   -2.7520378   -1.7197596 
C    -0.0152352   -2.2483671   -3.7922010 
C    -1.0387183   -1.6460987   -3.1459418 
C    -1.0632127   -1.5990956   -1.7909188 
C    -0.0527380   -2.1552875   -1.0672563 
H     1.8114991   -3.1835303   -1.1615093 
H    -1.8390017   -1.2008260   -3.7255690 
H    -1.8929024   -1.1071270   -1.2907658 
H     1.8197340   -3.2914931   -3.5841698 
C    -0.0634972   -2.0828830    0.4469330 
C     0.5070045   -0.7532923    0.9823274 
H     0.5250884   -2.9280038    0.8699692 
H    -1.1030865   -2.2153533    0.8178419 
C     1.9372089   -0.5358501    0.5143842 
O    -0.0260565   -2.2809170   -5.1909734 
H     0.7722025   -2.7566047   -5.5949926 
O     2.9404210   -1.3904882    0.9659424 
N    -0.3908675    0.3515619    0.5992199 
H     0.5718323   -0.8177435    2.0937795 
H    -1.2936862    0.2618593    1.1213771 
H     0.0278175    1.2689515    0.8913300 
N     2.2336968    0.3811893   -0.5435703 
C     3.4486668    1.2005708   -0.3967934 
H     1.6251312    0.3858754   -1.3935210 
C     3.1085566    2.5904394    0.1292371 
O     1.8857984    3.1731182   -0.1824706 
O     4.0289435    3.3312577    0.8739360 
H     4.8999737    2.8423194    1.0127242 
C     4.2097001    1.2848955   -1.7439998 
H     4.1200784    0.7534335    0.3666515 
C     4.1708952    0.0124721   -2.5750881 
H     5.2708458    1.5616911   -1.5605556 
H     3.7732014    2.1135771   -2.3485820 
C     4.6418372   -1.2071539   -2.2543367 
C     5.2271489   -1.6512910   -1.1127650 
C     5.6058085   -2.9603196   -1.0402153 
C     5.4061400   -3.7965313   -2.1024762 
C     4.8232874   -3.3300989   -3.2417896 
C     4.4516001   -2.0336450   -3.2862195 
H     5.3725772   -1.0006796   -0.2605339 
H     6.0583795   -3.3433788   -0.1278257 
H     5.7079221   -4.8392368   -2.0367865 
H     4.6547004   -3.9807899   -4.0933937 
N     3.8224272   -1.3644185   -4.3676726 
C     3.6719749   -0.0481573   -3.8237781 
H     3.5424670   -1.7268545   -5.3079708 
H     3.2229148    0.7867313   -4.3583042 
