48
Energy =
C     3.6405110    2.8446417    4.5059345 
C     3.8205692    2.1200456    3.3733435 
C     3.1224874    2.2575995    5.6178356 
C     2.7884777    0.9472294    5.5874717 
C     2.9664198    0.2172594    4.4571444 
C     3.4869462    0.8003881    3.3427652 
H     4.2363332    2.6040839    2.4911529 
H     2.3761014    0.4913788    6.4805832 
H     2.6881997   -0.8331201    4.4519112 
H     3.9122610    3.8945095    4.5175958 
C     3.6732776    0.0011319    2.0727530 
C     2.5578215    0.2808100    1.0383700 
H     3.7254385   -1.0895834    2.2892243 
H     4.6630972    0.2707221    1.6350134 
C     2.9089639   -0.3407337   -0.3020969 
O     2.9215514    2.9761543    6.8015106 
H     3.2037885    3.9484938    6.7422248 
O     2.9919242   -1.7220218   -0.4356819 
N     1.2581686   -0.2198018    1.5169093 
H     2.4828869    1.3815286    0.8696212 
H     1.3322520   -1.2420972    1.7380813 
H     0.9869310    0.2777655    2.3971747 
N     3.1685330    0.4781185   -1.4467723 
C     4.4886761    1.1285584   -1.5065306 
H     2.4134932    0.5900380   -2.1583783 
C     4.5071812    2.4031974   -0.6843185 
O     5.5627329    2.6442582    0.1785005 
O     3.5408630    3.3951491   -0.8382350 
H     2.7891658    3.0920357   -1.4391183 
C     4.8538614    1.4069316   -2.9797356 
H     5.2587039    0.4459339   -1.0703924 
C     6.3426189    1.6249877   -3.1639210 
H     4.2855189    2.2770680   -3.3735899 
H     4.5484547    0.5299263   -3.5945665 
C     7.0409581    2.7563655   -2.9565840 
C     6.6248596    3.9809755   -2.5413577 
C     7.5543084    4.9709088   -2.3992145 
C     8.8706193    4.7262560   -2.6758526 
C     9.2666089    3.4897007   -3.0897995 
C     8.3296674    2.5271614   -3.2192213 
H     5.5840276    4.1705106   -2.2962108 
H     7.2498200    5.9554819   -2.0490565 
H     9.6073842    5.5168420   -2.5538837 
H    10.3083727    3.2753051   -3.3038227 
N     8.5368176    1.1806794   -3.6184916 
C     7.2023417    0.6643401   -3.5474700 
H     9.4226613    0.6993754   -3.8968279 
H     6.9317583   -0.3676990   -3.7615384 
