48
Energy =
C     0.8431123   -4.0059383    2.1545751 
C     1.1312463   -3.0529803    1.2325435 
C     0.0705883   -5.0727002    1.8164275 
C    -0.4065362   -5.1792937    0.5554604 
C    -0.1213052   -4.2293714   -0.3710177 
C     0.6460501   -3.1560863   -0.0357498 
H     1.7582855   -2.2113214    1.5150189 
H    -1.0176672   -6.0371728    0.2977272 
H    -0.5086269   -4.3359819   -1.3809963 
H     1.2350569   -3.9135085    3.1615928 
C     0.9782885   -2.1058337   -1.0728868 
C     2.1438694   -2.5459099   -1.9872000 
H     1.2280110   -1.1393511   -0.5815748 
H     0.0702387   -1.9131471   -1.6875257 
C     2.2765101   -1.6185532   -3.1805534 
O    -0.2461821   -6.0718973    2.7427177 
H     0.1543096   -5.9210772    3.6621011 
O     1.9927045   -2.0809668   -4.4613796 
N     3.4053218   -2.6159435   -1.2261272 
H     1.9170323   -3.5507548   -2.4197083 
H     3.5361748   -1.7533700   -0.6449512 
H     3.3717137   -3.4309144   -0.5684219 
N     2.7202883   -0.2675967   -3.0158330 
C     4.1528442   -0.0215146   -3.2390522 
H     2.0367520    0.4699530   -2.7320327 
C     4.6613283    1.0874401   -2.3210552 
O     3.9528765    2.2818453   -2.2372817 
O     5.8549803    0.9688835   -1.6067688 
H     6.3070888    0.0780671   -1.7566209 
C     4.3568799    0.3248379   -4.7264131 
H     4.7291424   -0.9462405   -2.9989920 
C     5.8231716    0.3568494   -5.0958487 
H     3.8611360    1.2898322   -4.9700692 
H     3.8440630   -0.4457064   -5.3491628 
C     6.6412434    1.4225285   -5.0856752 
C     6.3812225    2.7212163   -4.7846830 
C     7.4076153    3.6176625   -4.8410502 
C     8.6640389    3.2086478   -5.1932858 
C     8.9023197    1.8995004   -5.4894234 
C     7.8706143    1.0317408   -5.4269485 
H     5.3881195    3.0508439   -4.4946965 
H     7.2262282    4.6619972   -4.5971967 
H     9.4774803    3.9290788   -5.2312913 
H     9.8942935    1.5571932   -5.7642339 
N     7.9082171   -0.3656377   -5.6794380 
C     6.5435270   -0.7266420   -5.4353426 
H     8.7138242   -0.9676794   -5.9665720 
H     6.1571641   -1.7419388   -5.4976025 
