48
Energy =
C     2.1189614   -5.8336525   -2.3587010 
C     1.9154310   -4.7235011   -3.1126413 
C     3.1891044   -5.9058256   -1.5223847 
C     4.0479118   -4.8638871   -1.4446495 
C     3.8499183   -3.7518604   -2.1962920 
C     2.7828045   -3.6769583   -3.0385823 
H     1.0533273   -4.6794711   -3.7732882 
H     4.8950955   -4.9310432   -0.7708759 
H     4.5498579   -2.9238189   -2.1163595 
H     1.4235242   -6.6632875   -2.4255467 
C     2.5587865   -2.4321280   -3.8662112 
C     1.9270329   -1.2888261   -3.0374003 
H     1.9242353   -2.6501470   -4.7547835 
H     3.5374507   -2.1060855   -4.2810372 
C     2.1275575    0.0484554   -3.7317059 
O     3.4287076   -7.0360536   -0.7339129 
H     2.7371681   -7.7696284   -0.8434937 
O     1.7194564    0.2144388   -5.0506445 
N     0.4976532   -1.5461427   -2.8033553 
H     2.4388225   -1.2172225   -2.0500340 
H    -0.0051774   -1.6483578   -3.7178326 
H     0.3794667   -2.4378012   -2.2677255 
N     2.5715254    1.1953173   -2.9984789 
C     3.9944797    1.2396435   -2.6099751 
H     1.8628296    1.9223682   -2.7492029 
C     4.2285412    2.2252466   -1.4687591 
O     4.7715069    1.7659327   -0.2757258 
O     3.9390023    3.5849218   -1.5956102 
H     3.5160736    3.7937557   -2.4876513 
C     4.8552117    1.5692234   -3.8495055 
H     4.3071620    0.2470454   -2.2129938 
C     6.3321197    1.4970696   -3.5304041 
H     4.5987824    2.5781455   -4.2415724 
H     4.6247612    0.8587220   -4.6733047 
C     7.0924509    0.3916620   -3.4951351 
C     6.7667477   -0.8972964   -3.7702320 
C     7.7310947   -1.8524305   -3.6372298 
C     8.9917587   -1.5087248   -3.2328459 
C     9.2948970   -0.2075594   -2.9590488 
C     8.3240199    0.7190445   -3.1018741 
H     5.7671205   -1.1701778   -4.0889980 
H     7.4961188   -2.8922718   -3.8524599 
H     9.7549128   -2.2758519   -3.1260139 
H    10.2874006    0.0815853   -2.6303087 
N     8.4221817    2.1134129   -2.8478739 
C     7.0839854    2.5412550   -3.1399898 
H     9.2487419    2.6745472   -2.5377286 
H     6.7165204    3.5591340   -3.0107629 
