48
Energy =
C    -2.0068196    3.4540593   -4.4227101 
C    -1.6907601    2.1396805   -4.5449341 
C    -2.1593675    4.0091716   -3.1904604 
C    -1.9903583    3.2453143   -2.0876006 
C    -1.6756723    1.9306981   -2.2037279 
C    -1.5319606    1.3672009   -3.4353556 
H    -1.5643501    1.7119886   -5.5363176 
H    -2.1051000    3.7019300   -1.1104317 
H    -1.5282597    1.3340259   -1.3052463 
H    -2.1345353    4.0608427   -5.3127621 
C    -1.1544034   -0.0926001   -3.5692024 
C     0.3763347   -0.2846723   -3.6238265 
H    -1.6170347   -0.5139280   -4.4881929 
H    -1.5700548   -0.6750860   -2.7155529 
C     1.0371022    0.1674633   -2.3349248 
O    -2.4874892    5.3588234   -3.0296661 
H    -2.5809079    5.8674417   -3.9020323 
O     0.6153524   -0.3450756   -1.1107775 
N     0.6940765   -1.6961570   -3.9076384 
H     0.7969989    0.3579391   -4.4342881 
H     0.2200484   -2.3016131   -3.1928594 
H     0.2988100   -1.9595146   -4.8416295 
N     2.1371319    1.0885001   -2.3676865 
C     3.3712860    0.4365137   -1.8699772 
H     1.8566223    1.8569521   -1.7137455 
C     4.3813678    1.4659694   -1.3515545 
O     5.4110285    1.9259055   -2.1656446 
O     4.2745411    1.9903283   -0.0633669 
H     3.4491216    1.6562313    0.4129289 
C     3.9618363   -0.4564802   -2.9973260 
H     3.1352767   -0.1913722   -0.9745652 
C     4.4956557   -1.7567837   -2.4473831 
H     4.7376652    0.0765975   -3.5872188 
H     3.1790556   -0.6948941   -3.7490503 
C     5.7594079   -2.0332661   -2.0909397 
C     6.8749265   -1.2622990   -2.1597056 
C     8.0522290   -1.7851865   -1.7120127 
C     8.0967420   -3.0546910   -1.2056565 
C     6.9628615   -3.8088445   -1.1416426 
C     5.8105099   -3.2704686   -1.5927628 
H     6.8444308   -0.2496134   -2.5516630 
H     8.9586035   -1.1852854   -1.7527992 
H     9.0389026   -3.4615950   -0.8469738 
H     6.9797515   -4.8143109   -0.7350769 
N     4.5237067   -3.8746105   -1.5949027 
C     3.7266641   -2.8199445   -2.1551233 
H     4.2453867   -4.8309595   -1.2736510 
H     2.6418517   -2.8498167   -2.2834433 
