48
Energy =
C    -3.9431322    2.0102579   -2.4734125 
C    -2.8000194    2.6540109   -2.1254007 
C    -3.8861274    0.8452432   -3.1734293 
C    -2.6839042    0.3314711   -3.5193831 
C    -1.5385313    0.9701122   -3.1733656 
C    -1.5905213    2.1393407   -2.4782150 
H    -2.8616723    3.5827190   -1.5642314 
H    -2.6507095   -0.5982961   -4.0761666 
H    -0.5816311    0.5408163   -3.4579992 
H    -4.9023146    2.4293434   -2.1895069 
C    -0.3092662    2.8350679   -2.0818725 
C     0.2802892    2.2511912   -0.7710801 
H    -0.4679986    3.9318997   -1.9804595 
H     0.4187231    2.7307270   -2.9206405 
C     1.8009616    2.3119945   -0.7973078 
O    -5.0445094    0.1565659   -3.5480127 
H    -5.9038952    0.6065277   -3.2518903 
O     2.3925916    3.5683945   -0.7422795 
N    -0.2657727    2.9519919    0.4017294 
H     0.0157988    1.1715859   -0.6799859 
H    -0.0050535    3.9678719    0.3696140 
H    -1.3105237    2.8889832    0.3972817 
N     2.5063468    1.1962982   -1.3849480 
C     3.9880133    1.1135532   -1.4674061 
H     1.9191448    0.5012313   -1.8918414 
C     4.7458398    2.4506762   -1.4097202 
O     5.0318857    3.1540928   -2.5736952 
O     5.2306301    2.9542191   -0.2006135 
H     4.8048795    2.4999859    0.5934270 
C     4.4149376    0.2401491   -2.6891606 
H     4.3326292    0.5609341   -0.5664303 
C     3.6140978    0.4936128   -3.9605485 
H     4.3308376   -0.8310812   -2.4092925 
H     5.4959318    0.3949435   -2.9085369 
C     2.5685501   -0.2246181   -4.4158425 
C     1.9753367   -1.3337739   -3.8977058 
C     0.9060879   -1.8672053   -4.5551930 
C     0.4492281   -1.2945442   -5.7090608 
C     1.0609189   -0.1865796   -6.2141658 
C     2.1180386    0.3217024   -5.5468926 
H     2.3300502   -1.7933239   -2.9807714 
H     0.4152145   -2.7537592   -4.1603333 
H    -0.4029019   -1.7260045   -6.2287095 
H     0.7127651    0.2789574   -7.1301898 
N     2.8856786    1.4601037   -5.9026955 
C     3.8348349    1.4997766   -4.8272708 
H     2.7876627    2.0956010   -6.7280041 
H     4.6311300    2.2360803   -4.7439664 
