48
Energy =
C    -1.0100978    0.2878939   -4.9244590 
C    -0.3328674   -0.0022525   -3.7850017 
C    -2.3648328    0.3999738   -4.9041523 
C    -3.0315316    0.2232912   -3.7412076 
C    -2.3580530   -0.0623677   -2.5980477 
C    -1.0009534   -0.1780575   -2.6129545 
H     0.7497730   -0.0750063   -3.8157291 
H    -4.1114733    0.3173525   -3.7378656 
H    -2.9134643   -0.1945185   -1.6741538 
H    -0.4627472    0.4361547   -5.8492730 
C    -0.2445957   -0.4846827   -1.3350608 
C     0.3713349    0.7635930   -0.6505079 
H     0.5591825   -1.2215243   -1.5522738 
H    -0.9212631   -0.9898466   -0.6116084 
C     1.6200713    1.2665378   -1.3604509 
O    -3.0949087    0.6951818   -6.0607292 
H    -2.5167075    0.8347889   -6.8822877 
O     1.5346485    2.0198778   -2.3422157 
N    -0.6248778    1.8320143   -0.4723141 
H     0.7167010    0.4531018    0.3609589 
H    -0.8620926    2.2393834   -1.4097728 
H    -1.5061552    1.4330058   -0.0762274 
N     2.9098139    0.7309103   -1.0162692 
C     3.7973691    0.5018634   -2.1691754 
H     3.1576689    0.4741727   -0.0338995 
C     3.2799467    1.2663198   -3.3879836 
O     3.8602143    1.0691102   -4.6373550 
O     2.3203628    2.0428454   -3.2702905 
H     2.2909124    2.6628773   -2.4860984 
C     3.8812632   -1.0116621   -2.4487387 
H     4.8072853    0.9092672   -1.9461022 
C     4.5294882   -1.7539863   -1.3035043 
H     4.4604895   -1.1993150   -3.3808515 
H     2.8584617   -1.4104175   -2.6270801 
C     5.8423003   -1.8342853   -1.0389227 
C     6.8996481   -1.3182981   -1.7164587 
C     8.1532689   -1.5420206   -1.2275314 
C     8.3285481   -2.2681717   -0.0816695 
C     7.2507643   -2.7746978    0.5826605 
C     6.0210100   -2.5408009    0.0781853 
H     6.7611932   -0.7398979   -2.6254588 
H     9.0174238   -1.1400781   -1.7514337 
H     9.3310119   -2.4413389    0.3020299 
H     7.3719073   -3.3504321    1.4939509 
N     4.7759681   -2.9663995    0.6149216 
C     3.8613129   -2.4090237   -0.3383545 
H     4.5830361   -3.5303049    1.4742742 
H     2.7785676   -2.4896035   -0.2741775 
