48
Energy =
C     1.8078147    5.3136326    1.9353945 
C     1.9866784    4.1608336    1.2425227 
C     0.8626821    5.3853664    2.9099730 
C     0.0980804    4.3031070    3.1802169 
C     0.2695575    3.1490511    2.4870709 
C     1.2216360    3.0680243    1.5171100 
H     2.7335572    4.1251789    0.4551330 
H    -0.6569972    4.3749015    3.9556999 
H    -0.3618803    2.2936755    2.7131686 
H     2.4177730    6.1798380    1.7034546 
C     1.3965845    1.7848351    0.7319589 
C     0.4626682    1.7261563   -0.5006854 
H     1.1810176    0.9227484    1.4018585 
H     2.4552449    1.6591227    0.4155436 
C     0.9246831    2.6502212   -1.6198325 
O     0.6561671    6.5558751    3.6472333 
H     1.2457184    7.3319832    3.3660773 
O     0.7166063    4.0195483   -1.5025850 
N     0.3415030    0.3318657   -0.9619800 
H    -0.5514950    2.1004404   -0.2200715 
H     1.2926889   -0.0962005   -1.0516266 
H    -0.1834683   -0.2282956   -0.2489299 
N     1.7563737    2.1691787   -2.6833007 
C     3.1934857    2.4883637   -2.6184074 
H     1.3297510    1.5357794   -3.3952472 
C     3.5559970    3.6625812   -3.5265686 
O     2.8268050    3.9065680   -4.6844974 
O     4.7053651    4.4223416   -3.2935077 
H     5.1659913    4.1655820   -2.4336602 
C     4.0278052    1.2255471   -2.9340883 
H     3.4594470    2.8040234   -1.5854413 
C     3.8695094    0.7368372   -4.3640631 
H     3.7552839    0.4231978   -2.2167056 
H     5.1040750    1.4416669   -2.7523558 
C     3.1129861   -0.2873133   -4.7969642 
C     2.3133497   -1.1390758   -4.1034806 
C     1.6369267   -2.1019656   -4.7924349 
C     1.7680076   -2.2012904   -6.1493800 
C     2.5764284   -1.3376329   -6.8258810 
C     3.2353237   -0.3934274   -6.1220463 
H     2.2003116   -1.0645243   -3.0288684 
H     0.9868564   -2.7918063   -4.2597904 
H     1.2231776   -2.9697880   -6.6917328 
H     2.6889141   -1.4004798   -7.9029074 
N     4.1137127    0.5972316   -6.6339641 
C     4.4778248    1.2887831   -5.4312337 
H     4.4202214    0.7646224   -7.6200206 
H     5.1272020    2.1637876   -5.3957618 
