48
Energy =
C    -3.2971261    0.8468992   -2.2015368 
C    -2.0309647    0.8051196   -2.6871417 
C    -4.0757598    1.9405662   -2.4169692 
C    -3.5787864    2.9881180   -3.1132585 
C    -2.3118337    2.9530000   -3.5985254 
C    -1.5314786    1.8564293   -3.3941292 
H    -1.4149184   -0.0687776   -2.4933295 
H    -4.2081096    3.8569756   -3.2730836 
H    -1.9285172    3.8081186   -4.1493344 
H    -3.6825954    0.0058625   -1.6357871 
C    -0.1124636    1.8264040   -3.9191734 
C     0.8841684    2.4906759   -2.9331971 
H    -0.0835138    2.3535046   -4.8984790 
H     0.2051370    0.7802960   -4.1291090 
C     1.0813838    1.6580209   -1.6856041 
O    -5.3870199    2.0142639   -1.9355364 
H    -5.6768462    1.2021278   -1.4015362 
O     0.1285623    1.6676789   -0.6742703 
N     2.1770166    2.7295701   -3.6084655 
H     0.4803253    3.4651833   -2.5692546 
H     2.5296734    1.8199962   -3.9969870 
H     1.9906376    3.2943627   -4.4731489 
N     2.1034572    0.6600628   -1.6624037 
C     3.5116302    1.1048094   -1.5642030 
H     1.8165898   -0.3392679   -1.7452370 
C     3.7585867    2.6070608   -1.8718874 
O     3.0608372    3.3572078   -2.8624685 
O     4.7737685    3.2839951   -1.1893047 
H     5.2811712    2.6926388   -0.5488295 
C     4.4021767    0.1942988   -2.4549060 
H     3.8106747    0.9840240   -0.4996630 
C     5.0174860   -0.9703086   -1.6951899 
H     5.2087388    0.8057931   -2.9120481 
H     3.8116659   -0.2103194   -3.3056622 
C     6.2778932   -1.4313690   -1.8080751 
C     7.3109756   -0.9854937   -2.5724997 
C     8.5033248   -1.6441552   -2.5023953 
C     8.6469109   -2.7284056   -1.6829580 
C     7.5983462   -3.1622301   -0.9290052 
C     6.4293227   -2.4934106   -1.0131909 
H     7.2098682   -0.1294172   -3.2305177 
H     9.3443273   -1.3053561   -3.1028076 
H     9.6003669   -3.2483165   -1.6337763 
H     7.6941351   -4.0236150   -0.2767482 
N     5.2243533   -2.7913696   -0.3262191 
C     4.3594686   -1.7679447   -0.8308817 
H     5.0231211   -3.5534774    0.3609624 
H     3.3177026   -1.6645288   -0.5434477 
