48
Energy =
C    -0.4240016   -0.0592851    3.8757498 
C     0.6145966    0.7759557    3.6040029 
C    -1.2781585   -0.4380889    2.8830496 
C    -1.0910440    0.0274128    1.6265043 
C    -0.0574108    0.8625949    1.3660947 
C     0.8082617    1.2296824    2.3361604 
H     1.2844612    1.0745976    4.4057097 
H    -1.7686257   -0.2778401    0.8373062 
H     0.2326319    1.2995903    0.3136754 
H    -0.5697967   -0.4229350    4.8871196 
C     1.9340778    2.1916997    1.9870256 
C     2.6757418    1.8288524    0.6620432 
H     2.6691947    2.2102346    2.8211857 
H     1.5103903    3.2172431    1.9064163 
C     1.8365134    2.0615307   -0.6181174 
O    -2.3485104   -1.3041875    3.1271309 
H    -2.4298717   -1.5952056    4.0951002 
O     0.4884327    1.7036107   -0.6762235 
N     3.9471049    2.5701087    0.6075928 
H     2.8993540    0.7359420    0.6728234 
H     3.7664842    3.6027130    0.6469079 
H     4.5525211    2.3188765    1.4245302 
N     2.4494107    2.4733772   -1.8421533 
C     3.5023904    1.6127919   -2.4206816 
H     2.1596882    3.3923057   -2.2450866 
C     4.2994112    2.3612688   -3.4763760 
O     5.6831062    2.4091738   -3.3696452 
O     3.6894995    2.9565331   -4.5804148 
H     2.6924290    2.8001139   -4.5859786 
C     2.8854160    0.3185845   -3.0130807 
H     4.2548723    1.3630293   -1.6404517 
C     2.6197135   -0.7288019   -1.9535327 
H     3.5676442   -0.1267836   -3.7727584 
H     1.9403695    0.5677734   -3.5462165 
C     3.5376616   -1.4443511   -1.2847362 
C     4.8908339   -1.4436863   -1.3954365 
C     5.6079340   -2.2644632   -0.5754336 
C     4.9691917   -3.0643830    0.3318079 
C     3.6088389   -3.0493335    0.4234166 
C     2.9219181   -2.2303362   -0.3999295 
H     5.4001361   -0.8097630   -2.1169392 
H     6.6932778   -2.2825542   -0.6444443 
H     5.5481903   -3.7161900    0.9817866 
H     3.0858651   -3.6771860    1.1373794 
N     1.5137966   -2.0571715   -0.4596519 
C     1.4026632   -1.0734914   -1.4973899 
H     0.7594361   -2.5199269    0.0990883 
H     0.4635881   -0.6427107   -1.8405730 
