48
Energy =
C     0.6954484   -5.0056330    0.7120484 
C     0.5602825   -3.7089850    0.3351274 
C     1.3396692   -5.3177261    1.8682740 
C     1.8438606   -4.3284386    2.6402905 
C     1.7117182   -3.0299373    2.2683788 
C     1.0656537   -2.7124178    1.1128761 
H     0.0440529   -3.4747482   -0.5924703 
H     2.3554014   -4.5910049    3.5598254 
H     2.1279992   -2.2505627    2.9011235 
H     0.2878621   -5.7919950    0.0859480 
C     0.9311434   -1.2689783    0.6809820 
C     1.9496265   -0.8850767   -0.4214962 
H     1.0393220   -0.5808459    1.5495197 
H    -0.1044391   -1.1054173    0.3045784 
C     1.6731405    0.5008092   -0.9941906 
O     1.4991827   -6.6435150    2.2842767 
H     1.0860227   -7.3245524    1.6565447 
O     0.7072343    1.3192864   -0.4206979 
N     3.3275001   -0.9709694    0.0948009 
H     1.8315138   -1.5886960   -1.2777548 
H     3.4108267   -0.4144001    0.9795040 
H     3.5534555   -1.9664172    0.3292775 
N     2.1959636    0.8696242   -2.2756622 
C     3.6448072    1.1339209   -2.3676682 
H     1.5371883    0.9110100   -3.0843754 
C     3.9309374    2.4903631   -3.0045745 
O     4.7408372    3.3968688   -2.3317550 
O     3.4482066    2.8352759   -4.2690255 
H     2.8724422    2.1069372   -4.6592091 
C     4.3088725   -0.0290747   -3.1342291 
H     4.0927163    1.1996402   -1.3457223 
C     5.8144835   -0.0023941   -2.9873130 
H     4.0184574   -0.0155566   -4.2064621 
H     3.9355372   -0.9942150   -2.7254151 
C     6.7023797    0.5904741   -3.8022519 
C     6.5057337    1.2770558   -4.9572143 
C     7.5928687    1.7964029   -5.5961882 
C     8.8466669    1.6235995   -5.0785075 
C     9.0205933    0.9313831   -3.9170264 
C     7.9293780    0.4269889   -3.3034555 
H     5.5121593    1.4247907   -5.3679751 
H     7.4593517    2.3573700   -6.5181258 
H     9.7071802    2.0454411   -5.5916414 
H    10.0072818    0.7908118   -3.4892681 
N     7.8914971   -0.3071966   -2.0875738 
C     6.4834566   -0.5389746   -1.9516442 
H     8.6793768   -0.6005433   -1.4658515 
H     6.0217128   -1.0575406   -1.1139998 
