48
Energy =
C    -1.4384380   -3.7753830   -2.4025167 
C    -1.1173070   -2.5957718   -2.9916864 
C    -1.1882591   -4.9490375   -3.0415587 
C    -0.6156701   -4.9341437   -4.2658605 
C    -0.2903481   -3.7583990   -4.8585206 
C    -0.5379120   -2.5781343   -4.2243231 
H    -1.3114443   -1.6671582   -2.4606424 
H    -0.4187078   -5.8765354   -4.7641665 
H     0.1720591   -3.7693757   -5.8411318 
H    -1.8905168   -3.7763379   -1.4165173 
C    -0.1740563   -1.2608246   -4.8829313 
C     1.2563134   -0.7655854   -4.5517731 
H    -0.9119297   -0.4834085   -4.5847627 
H    -0.2756221   -1.3577701   -5.9861272 
C     1.4243028   -0.3938251   -3.0812449 
O    -1.5105784   -6.1819389   -2.4654652 
H    -1.9130668   -6.1076311   -1.5373337 
O     1.4811944   -1.3825352   -2.1043624 
N     2.2764308   -1.7273427   -5.0036164 
H     1.4175221    0.1796346   -5.1177134 
H     2.2656510   -2.5729945   -4.3811871 
H     2.0755966   -2.0449755   -5.9805271 
N     1.2315307    0.9663755   -2.6692330 
C     2.2163943    1.5227125   -1.7213259 
H     0.4986089    1.5429366   -3.1407073 
C     1.7424970    2.8574129   -1.1549868 
O     1.6617543    3.0248401    0.2214149 
O     1.4465591    3.9426383   -1.9822481 
H     1.5976738    3.7277575   -2.9555033 
C     3.6046382    1.6681231   -2.4002540 
H     2.2835141    0.8434105   -0.8384353 
C     4.4530525    0.4235068   -2.2423019 
H     4.1719375    2.5178140   -1.9566335 
H     3.4765248    1.9096907   -3.4782025 
C     5.0263175   -0.0142642   -1.1095300 
C     5.0010783    0.5172150    0.1400626 
C     5.6741069   -0.1311727    1.1334269 
C     6.3567622   -1.2858339    0.8657165 
C     6.3710333   -1.7984090   -0.3977665 
C     5.6969792   -1.1388691   -1.3630439 
H     4.4579715    1.4336584    0.3555703 
H     5.6642693    0.2712986    2.1437931 
H     6.8884429   -1.7985960    1.6636160 
H     6.9062050   -2.7136450   -0.6276201 
N     5.5894723   -1.4969425   -2.7331846 
C     4.7672040   -0.4325060   -3.2312222 
H     6.0103765   -2.3057001   -3.2459299 
H     4.4359742   -0.3470399   -4.2635216 
