48
Energy =
C     3.7513112    2.1951732    5.4587048 
C     3.3145376    1.3143042    4.5230910 
C     4.6732854    3.1399816    5.1312537 
C     5.1512475    3.1973830    3.8673905 
C     4.7192158    2.3186465    2.9281443 
C     3.7990650    1.3688088    3.2520207 
H     2.5737062    0.5685284    4.7995770 
H     5.8828579    3.9578046    3.6165913 
H     5.1130179    2.3847667    1.9156698 
H     3.3604578    2.1430390    6.4690640 
C     3.3076464    0.4007669    2.1995959 
C     2.3142548    1.0656404    1.2183883 
H     2.8333693   -0.4936077    2.6634296 
H     4.1900524    0.0140757    1.6424057 
C     2.0923072    0.1828001    0.0042675 
O     5.1440829    4.0618762    6.0722029 
H     4.7353325    3.9553179    6.9939930 
O     1.5333196   -1.0823745    0.1409231 
N     1.0364717    1.3588511    1.8873143 
H     2.7493153    2.0204576    0.8362048 
H     0.6270646    0.4749739    2.2752363 
H     1.1937480    2.0185100    2.6846967 
N     2.4213679    0.6496484   -1.3059900 
C     3.8517884    0.7753889   -1.6412930 
H     1.6401019    0.8711666   -1.9627403 
C     4.2479256    2.2373912   -1.7802975 
O     5.1063139    2.7932760   -0.8396984 
O     3.7588617    3.0461500   -2.8050413 
H     3.1018773    2.5534296   -3.3895791 
C     4.1490853   -0.0418582   -2.9156988 
H     4.4931004    0.3789144   -0.8176571 
C     4.2797505   -1.5153985   -2.5930276 
H     5.0789887    0.3236667   -3.4034248 
H     3.3377426    0.0965046   -3.6636985 
C     5.4180510   -2.2056099   -2.4082172 
C     6.7116897   -1.7965523   -2.4871504 
C     7.6962043   -2.7061108   -2.2340522 
C     7.3786935   -3.9943421   -1.9037870 
C     6.0741243   -4.3806486   -1.8221839 
C     5.1181280   -3.4643159   -2.0813281 
H     6.9719614   -0.7729783   -2.7374431 
H     8.7393475   -2.4036558   -2.2908890 
H     8.1692414   -4.7123074   -1.6998763 
H     5.8042546   -5.3959717   -1.5520840 
N     3.7123451   -3.6540817   -2.0243951 
C     3.2435607   -2.3394624   -2.3567103 
H     3.1659269   -4.5195083   -1.8081742 
H     2.1973098   -2.0341501   -2.3437450 
