48
Energy =
C     2.2209722    1.3767485    3.5683683 
C     1.6251869    2.0144344    2.5292523 
C     1.8334658    0.1192466    3.9112622 
C     0.8495423   -0.4908020    3.2126651 
C     0.2506590    0.1416537    2.1731376 
C     0.6367773    1.3993864    1.8219347 
H     1.9506766    3.0169978    2.2618379 
H     0.5471498   -1.4928917    3.4952581 
H    -0.5361543   -0.3676299    1.6232923 
H     3.0096147    1.8743656    4.1225135 
C    -0.0155259    2.1045324    0.6502026 
C     0.6968355    1.8607641   -0.7023850 
H    -0.0420791    3.1999606    0.8466086 
H    -1.0794688    1.7927884    0.5670401 
C     2.1486187    2.3122399   -0.6857829 
O     2.4306533   -0.5677202    4.9728628 
H     3.1488539   -0.0378243    5.4545018 
O     2.4465649    3.4472405   -1.0835660 
N     0.5478369    0.4616979   -1.1426399 
H     0.2085727    2.5157618   -1.4637503 
H     1.0312309   -0.1809059   -0.4741841 
H    -0.4652070    0.1992907   -1.1547505 
N     3.2171379    1.4098285   -0.3578983 
C     4.3562742    1.5064865   -1.2828763 
H     3.1633725    0.7645436    0.4605654 
C     4.3737372    2.9010268   -1.9277114 
O     5.3783482    3.2579676   -2.8208702 
O     3.4944658    3.7288486   -1.6335544 
H     3.2607485    3.8719918   -0.6741390 
C     4.2099570    0.3652982   -2.3094643 
H     5.3053601    1.3969624   -0.7151496 
C     5.4093621    0.2392565   -3.2230841 
H     3.2725061    0.5076880   -2.8919875 
H     4.0807031   -0.5951701   -1.7639864 
C     5.5234874    0.6899526   -4.4837233 
C     4.6316964    1.3642453   -5.2555623 
C     5.0026816    1.7129656   -6.5208156 
C     6.2442805    1.3867568   -6.9916751 
C     7.1242902    0.7123988   -6.1985207 
C     6.7347354    0.3790879   -4.9499922 
H     3.6514022    1.6419422   -4.8802136 
H     4.3097634    2.2617126   -7.1540213 
H     6.5334638    1.6730759   -7.9996289 
H     8.1150147    0.4516540   -6.5545603 
N     7.4959996   -0.3143958   -3.9707030 
C     6.5648012   -0.3581813   -2.8817917 
H     8.4680439   -0.6944838   -4.0340807 
H     6.7694422   -0.8138073   -1.9161219 
