48
 energy: -9.057584800529 gnorm: 0.000522652841 xtb: 6.6.0 (2ccbbd7)
C            3.78004227643919        0.96773268149729        5.25522708565590
C            4.05330519308627        0.19797004319604        4.14793760581649
C            2.91157243426079        2.05772797800760        5.17113756279758
C            2.33281948169514        2.34336099639125        3.93393270612633
C            2.61562225177701        1.56547057158617        2.84337145556612
C            3.46782641862906        0.48040903193578        2.92045196657448
H            4.73109703004215       -0.63480418278312        4.22540542408941
H            1.66712021026301        3.18385977392559        3.85384911352705
H            2.13140908432224        1.77379201072119        1.73107668761118
H            4.23741960298273        0.73746172951713        6.20071991544223
C            3.79921943215302       -0.34277215937542        1.70802701557255
C            2.65607227104927       -0.47104833494985        0.68772279912761
H            4.09938134033215       -1.34394584726061        2.03290048534968
H            4.67687202643984        0.08329492350893        1.21564766692982
C            2.39814343004603        0.82108812571865       -0.03165681624475
O            2.61685337774148        2.84762848799748        6.26556364390496
H            3.09994446218701        2.52197270159974        7.05557257422455
O            1.78591585225510        1.83436402822730        0.65882891723361
N            2.86663523436222       -1.55504653942703       -0.26623359787782
H            1.73499915170020       -0.71863124972467        1.23950166930342
H            3.54113341137914       -1.26066963816072       -0.96226239423161
H            3.22350694080782       -2.38508585696376        0.19148710732459
N            2.78639354065393        1.00199161298829       -1.37244039499219
C            4.20402634741748        1.12324107471911       -1.73966207382699
H            2.31597822413999        1.79479310053040       -1.81132676207774
C            4.55204307100563        2.58889005053473       -1.92292508901326
O            3.72690126215183        3.30266390426578       -2.44890760465373
O            5.78205869296196        2.98887685100370       -1.50914645882343
H            6.28567304948460        2.24788982342656       -1.10530714954727
C            4.54984022488390        0.30653387904460       -2.99629128462760
H            4.79155141905216        0.75019072129115       -0.89051903528661
C            3.57676073943606        0.44449968512688       -4.12173861783596
H            4.62283087124630       -0.75396576335214       -2.73761837625298
H            5.54450386014035        0.59460409642845       -3.35183866651874
C            3.17721873477280       -0.59471718657453       -5.01558863134138
C            3.49775812163644       -1.96112960111287       -5.09931607953366
C            2.93867818520544       -2.70627863697116       -6.10050725051157
C            2.06020912528548       -2.13015230172810       -7.03258448991505
C            1.73333379582718       -0.80319443724557       -6.97103638697476
C            2.29525637225951       -0.02195581832423       -5.95330600811477
H            4.17104747989274       -2.40039585826544       -4.38513297929542
H            3.17557726278277       -3.75449717814263       -6.17818377819142
H            1.63797484764472       -2.74595383487394       -7.80938664409416
H            1.06237690952971       -0.35317818213893       -7.68060833932212
N            2.17055746951478        1.32016614815664       -5.64170731269216
C            2.94667981161069        1.58825353733820       -4.54343729337445
H            1.59609752256193        1.99058208038772       -6.15597417802744
H            3.03294398863945        2.55300344481961       -4.07269435742555
