48
Energy =
C    -2.9153487    1.3895972    1.5218273 
C    -1.6044026    1.7071088    1.3721970 
C    -3.2727131    0.2512831    2.1743259 
C    -2.3142355   -0.5611299    2.6746750 
C    -1.0018076   -0.2484044    2.5284567 
C    -0.6391599    0.8907533    1.8773741 
H    -1.3331230    2.6187957    0.8457667 
H    -2.6123137   -1.4659390    3.1929443 
H    -0.2470954   -0.9176473    2.9330596 
H    -3.6769098    2.0472440    1.1169692 
C     0.8218221    1.2332643    1.6874732 
C     1.3283079    0.8729397    0.2696214 
H     1.4520830    0.7262591    2.4526796 
H     0.9626264    2.3234130    1.8676281 
C     2.7225023    1.4266096    0.0118497 
O    -4.6141087   -0.1078965    2.3414412 
H    -5.2712106    0.5595521    1.9525290 
O     3.5499111    1.7679864    1.0778273 
N     1.3094483   -0.5828586    0.0697331 
H     0.6590120    1.3533214   -0.4801429 
H     1.8405236   -1.0614648    0.8356930 
H     0.3239563   -0.9350396    0.0897668 
N     3.1328745    1.7807245   -1.3157355 
C     4.4457546    1.2836221   -1.7643900 
H     2.4570035    2.2387150   -1.9660116 
C     5.3769591    2.4555690   -2.0531301 
O     5.6666464    2.8118796   -3.3663358 
O     5.9439821    3.2010618   -1.0209607 
H     5.5711770    2.9350511   -0.1184812 
C     4.2656673    0.3765038   -3.0024734 
H     4.9553391    0.6985804   -0.9620038 
C     3.5111380   -0.8931058   -2.6779522 
H     5.2668384    0.0977640   -3.4033554 
H     3.7627804    0.9408304   -3.8176367 
C     2.2045939   -1.1359209   -2.8731440 
C     1.2344691   -0.3382619   -3.3909075 
C    -0.0358118   -0.8292238   -3.4691180 
C    -0.3149249   -2.0957291   -3.0356961 
C     0.6748151   -2.8796799   -2.5217595 
C     1.9235670   -2.3720010   -2.4548220 
H     1.4505336    0.6681560   -3.7327761 
H    -0.8309129   -0.2103335   -3.8779678 
H    -1.3301394   -2.4795775   -3.1005281 
H     0.4701123   -3.8854789   -2.1710525 
N     3.0838880   -3.0139196   -1.9446932 
C     4.0654696   -1.9842057   -2.1203774 
H     3.1909649   -3.9763018   -1.5497562 
H     5.1128052   -2.0796409   -1.8423917 
