48
Energy =
C     4.6429234   -3.7726737   -0.1715688 
C     3.5826838   -2.9725777   -0.4478373 
C     5.4087006   -3.5371008    0.9252871 
C     5.0979113   -2.5108931    1.7471249 
C     4.0348346   -1.7106563    1.4801389 
C     3.2797418   -1.9179036    0.3620936 
H     2.9816778   -3.1846046   -1.3283275 
H     5.7103940   -2.3387259    2.6253245 
H     3.8104557   -0.9104114    2.1752483 
H     4.8802327   -4.5976966   -0.8343537 
C     2.0524695   -1.0732761    0.0486123 
C     2.1779194    0.4392040    0.3645040 
H     1.1997824   -1.4941939    0.6235541 
H     1.7978332   -1.1751942   -1.0298749 
C     3.3702467    1.0965026   -0.3192465 
O     6.5216621   -4.3294346    1.2265320 
H     6.6763711   -5.0857690    0.5687392 
O     4.3971563    1.6132779    0.4650689 
N     0.9178920    1.1219214    0.0244471 
H     2.3486107    0.5776581    1.4555963 
H     0.6217491    0.8885820   -0.9521631 
H     0.1580948    0.7920187    0.6650937 
N     3.3569288    1.4024170   -1.7224325 
C     4.5738521    1.0871721   -2.4914297 
H     2.4763157    1.7315646   -2.1775692 
C     4.8737908    2.1971910   -3.4968180 
O     4.7043705    1.9821166   -4.8616238 
O     5.2947559    3.4535455   -3.0693649 
H     5.2653336    3.5160933   -2.0605268 
C     4.3992283   -0.2936752   -3.1518139 
H     5.4606848    1.0577649   -1.8153818 
C     5.7041567   -0.8151760   -3.7129824 
H     3.6266342   -0.2323832   -3.9511949 
H     4.0210558   -1.0183480   -2.4039117 
C     6.7087563   -1.3663679   -3.0156147 
C     6.8179807   -1.5912859   -1.6820802 
C     7.9581671   -2.1745867   -1.2138045 
C     8.9652615   -2.5108278   -2.0758476 
C     8.8387306   -2.2624642   -3.4109707 
C     7.6978765   -1.6895995   -3.8494140 
H     6.0247183   -1.3079363   -0.9962930 
H     8.0669116   -2.3705652   -0.1482029 
H     9.8727239   -2.9718461   -1.6936132 
H     9.6319011   -2.5137687   -4.1068692 
N     7.3718492   -1.3338677   -5.1858117 
C     6.0659873   -0.7637032   -5.0070048 
H     7.9293003   -1.4623256   -6.0615088 
H     5.4699613   -0.3115407   -5.8001069 
