48
Energy =
C     1.4597503    5.3758505    1.4652559 
C     2.6347399    4.9158896    0.9657761 
C     1.1438818    5.1658501    2.7707923 
C     2.0053047    4.4926436    3.5674679 
C     3.1812065    4.0292625    3.0728222 
C     3.5058432    4.2438429    1.7687673 
H     2.8742744    5.0813146   -0.0825489 
H     1.7384494    4.3259444    4.6059431 
H     3.8568614    3.4826586    3.7261830 
H     0.7713005    5.9090619    0.8190515 
C     4.8047683    3.7048163    1.2095367 
C     4.6934269    2.2107795    0.8278093 
H     5.6106285    3.8335458    1.9654367 
H     5.1224884    4.2940154    0.3190383 
C     3.6267684    1.9554717   -0.2292994 
O    -0.0559822    5.6302461    3.3187268 
H    -0.6600416    6.1103202    2.6602464 
O     2.5241805    1.1732293    0.1039321 
N     6.0095163    1.7125308    0.3961884 
H     4.3675744    1.6269087    1.7217739 
H     6.3967051    2.3243708   -0.3630086 
H     6.6821166    1.7535589    1.1972542 
N     3.5530660    2.7748974   -1.4076523 
C     4.2188811    2.1206305   -2.5549316 
H     2.5383408    2.9151210   -1.6162649 
C     4.5852556    3.1633952   -3.6156141 
O     5.9080067    3.2740298   -4.0325626 
O     3.6317952    3.9960558   -4.2086417 
H     2.7127170    3.8502429   -3.8232631 
C     3.3355960    0.9861872   -3.1367237 
H     5.1702376    1.6596004   -2.2111523 
C     3.9485654    0.2194054   -4.2996162 
H     2.3666989    1.4209826   -3.4596292 
H     3.1151778    0.2542138   -2.3297062 
C     3.2747058   -0.5968363   -5.1275095 
C     1.9508453   -0.9011282   -5.1583794 
C     1.5079411   -1.7763214   -6.1062597 
C     2.3843328   -2.3317528   -6.9967963 
C     3.7095352   -2.0169679   -6.9431213 
C     4.1225104   -1.1469806   -5.9976967 
H     1.2527061   -0.4676319   -4.4486117 
H     0.4527949   -2.0351108   -6.1525398 
H     2.0240130   -3.0293162   -7.7487437 
H     4.4192615   -2.4523034   -7.6383629 
N     5.4494997   -0.7047604   -5.7614887 
C     5.2544917    0.1676074   -4.6388367 
H     6.3322423   -0.9563374   -6.2629090 
H     6.0614564    0.7072780   -4.1433814 
