48
Energy =
C    -2.3393182    3.5962327   -5.2194863 
C    -1.5219994    3.2938855   -4.1789671 
C    -2.1634231    2.9918168   -6.4249541 
C    -1.1683432    2.0893140   -6.5811701 
C    -0.3481147    1.7830188   -5.5444193 
C    -0.5239706    2.3811776   -4.3342945 
H    -1.6722366    3.7876272   -3.2216310 
H    -1.0362839    1.6173654   -7.5486474 
H     0.4496852    1.0600691   -5.6926521 
H    -3.1329412    4.3234344   -5.0856217 
C     0.3973199    2.0583584   -3.1804466 
C     1.4911821    3.1349563   -2.9918914 
H     0.8658685    1.0608904   -3.3231514 
H    -0.2067394    1.9788854   -2.2471744 
C     2.2654351    2.9016041   -1.7140825 
O    -2.9879082    3.2799928   -7.5173072 
H    -3.7056629    3.9695228   -7.3221554 
O     1.9160125    3.6239448   -0.5815695 
N     2.3923357    3.1851494   -4.1530630 
H     1.0133999    4.1353136   -2.8512815 
H     2.7115154    2.2241894   -4.4094741 
H     1.8870948    3.5821564   -4.9796191 
N     3.0868629    1.7402632   -1.5431762 
C     4.5592405    1.8471772   -1.6852729 
H     2.6019701    0.8211573   -1.4506115 
C     5.0739570    3.2545989   -2.0292382 
O     5.7184774    3.4860896   -3.2401619 
O     4.9989234    4.3013891   -1.1121399 
H     4.3952802    4.0676354   -0.3354601 
C     5.0659690    0.7910344   -2.6990341 
H     5.0143477    1.6200573   -0.6965918 
C     4.7621611   -0.6254930   -2.2608674 
H     6.1689770    0.8897120   -2.8221389 
H     4.6369812    0.9989659   -3.7007295 
C     3.7821145   -1.4247771   -2.7160770 
C     2.8459320   -1.2019742   -3.6754290 
C     1.9402107   -2.1865170   -3.9395653 
C     1.9823298   -3.3665870   -3.2502096 
C     2.9310315   -3.5692145   -2.2923804 
C     3.8167262   -2.5802453   -2.0498005 
H     2.8080119   -0.2693328   -4.2266952 
H     1.1815096   -2.0330749   -4.7033056 
H     1.2569303   -4.1470671   -3.4666111 
H     2.9773333   -4.4986656   -1.7349400 
N     4.8660460   -2.5841442   -1.0925308 
C     5.4263043   -1.2802526   -1.2923402 
H     5.1493590   -3.3357118   -0.4224913 
H     6.2643649   -0.8785891   -0.7265965 
