48
Energy =
C     2.5511210    1.0971298    3.4043849 
C     1.7479893    1.7227979    2.5075542 
C     2.2623137   -0.1661558    3.8152234 
C     1.1678276   -0.7929677    3.3285368 
C     0.3615833   -0.1726387    2.4314541 
C     0.6501813    1.0893847    2.0070193 
H     1.9935559    2.7323607    2.1878248 
H     0.9436277   -1.7982790    3.6665941 
H    -0.5154274   -0.6951733    2.0609813 
H     3.4252753    1.6098579    3.7908091 
C    -0.2352192    1.7866692    0.9894417 
C     0.2722022    1.6665063   -0.4718662 
H    -0.3069217    2.8657186    1.2535817 
H    -1.2736553    1.3939833    1.0487075 
C     1.6910244    2.1791385   -0.6285543 
O     3.0718443   -0.8409222    4.7349182 
H     3.8640975   -0.2982702    5.0608252 
O     1.8996699    3.3954866   -0.7433183 
N     0.1330032    0.2895768   -0.9946590 
H    -0.3395253    2.3645565   -1.0949192 
H    -0.2070540   -0.3822845   -0.2711188 
H    -0.5706184    0.2765085   -1.7694992 
N     2.8145191    1.2846232   -0.6337577 
C     3.9462297    1.7310673   -1.4639030 
H     2.7976794    0.4108467   -0.0614719 
C     3.7625777    3.2065367   -1.8446390 
O     4.5895196    3.8079373   -2.7885594 
O     2.8680844    3.8740533   -1.3019385 
H     2.7301772    3.7685030   -0.3192575 
C     4.0269313    0.8038461   -2.6950984 
H     4.8803247    1.6695757   -0.8644586 
C     5.3971646    0.8265384   -3.3367469 
H     3.2425161    1.0916358   -3.4315203 
H     3.7880321   -0.2405087   -2.3968090 
C     6.4718431    0.1222171   -2.9492064 
C     6.6069034   -0.7701636   -1.9345371 
C     7.8255750   -1.3512951   -1.7410952 
C     8.8792502   -1.0333507   -2.5530141 
C     8.7207267   -0.1312720   -3.5630683 
C     7.5047466    0.4279873   -3.7358489 
H     5.7726436   -1.0192485   -1.2850712 
H     7.9604188   -2.0692250   -0.9355517 
H     9.8480850   -1.4990652   -2.3907577 
H     9.5473962    0.1362111   -4.2124752 
N     7.1333855    1.3924378   -4.7101295 
C     5.7530918    1.6027047   -4.3757383 
H     7.7081423    1.8243979   -5.4696244 
H     5.1005908    2.3301510   -4.8588267 
