48
Energy =
C    -1.1593341   -1.4873994   -0.9131432 
C     0.1540542   -1.5749290   -0.5827949 
C    -1.5527626   -1.6505571   -2.2031948 
C    -0.6287221   -1.9009569   -3.1555563 
C     0.6861922   -1.9888229   -2.8327669 
C     1.0930707   -1.8136269   -1.5424794 
H     0.4361066   -1.4303930    0.4543080 
H    -0.9602905   -2.0296290   -4.1800369 
H     1.4065418   -2.1965188   -3.6190459 
H    -1.8934415   -1.2835073   -0.1408168 
C     2.5722581   -1.9326804   -1.2003086 
C     3.1373714   -0.8458287   -0.2354488 
H     3.1673486   -1.8776390   -2.1347156 
H     2.7637290   -2.9501194   -0.7967255 
C     2.5568565    0.5518392   -0.4716791 
O    -2.8974038   -1.5703081   -2.5782127 
H    -3.5248564   -1.3546440   -1.8104322 
O     1.9640025    1.2535076    0.5709471 
N     2.9959133   -1.2592691    1.1775315 
H     4.2231704   -0.7353024   -0.4561794 
H     2.4526900   -2.1447986    1.2985582 
H     3.9373910   -1.4142152    1.6074912 
N     2.5940483    1.1819606   -1.7639258 
C     3.9455890    1.6550756   -2.1613235 
H     2.1157555    0.5683778   -2.4565500 
C     3.8967298    3.1066502   -2.6370160 
O     4.7147028    3.5248872   -3.6805774 
O     3.1010004    4.0577204   -2.0026551 
H     2.5657099    3.6457723   -1.2488221 
C     4.6197644    0.6952288   -3.1901477 
H     4.6212571    1.7142116   -1.2750079 
C     3.7643419    0.3056420   -4.3891226 
H     4.9321755   -0.2124373   -2.6396932 
H     5.5593027    1.1549602   -3.5760184 
C     3.7192988   -0.9052479   -4.9751492 
C     4.3912171   -2.0489151   -4.6750798 
C     4.1528015   -3.1604857   -5.4286710 
C     3.2627820   -3.1144833   -6.4650559 
C     2.6101850   -1.9547238   -6.7575516 
C     2.8614400   -0.8697406   -5.9965994 
H     5.1129968   -2.0909792   -3.8661319 
H     4.6809987   -4.0859180   -5.2107025 
H     3.0834093   -4.0026470   -7.0664136 
H     1.9102642   -1.8954100   -7.5844584 
N     2.3005600    0.4229210   -6.1440154 
C     2.9497957    1.1296034   -5.0790307 
H     1.5952153    0.7698941   -6.8343437 
H     2.8010013    2.1884188   -4.8774864 
