48
Energy =
C    -1.0402787    3.4079839    2.1583487 
C    -1.0134900    2.0514199    2.1896530 
C     0.0361470    4.1238358    2.5816235 
C     1.1342358    3.4758970    3.0315889 
C     1.1609940    2.1204641    3.0779197 
C     0.0851342    1.3986337    2.6580824 
H    -1.8764983    1.4925954    1.8367717 
H     1.9977555    4.0552440    3.3419473 
H     2.0568549    1.6185162    3.4367227 
H    -1.9230926    3.9191228    1.7899358 
C     0.1304508   -0.1144634    2.6562095 
C     0.6573168   -0.6669870    1.3125529 
H    -0.8872063   -0.5145456    2.8565254 
H     0.7789800   -0.4801805    3.4854328 
C     2.1110692   -0.2710955    1.0898494 
O     0.0366846    5.5224120    2.5646714 
H    -0.8146038    5.9313233    2.1967177 
O     3.0792167   -0.7223705    1.9884964 
N     0.5013783   -2.1293765    1.2756847 
H     0.0634879   -0.2323342    0.4760399 
H     1.0833735   -2.5597684    2.0352380 
H    -0.4967197   -2.3895326    1.4506935 
N     2.4497823    0.6878497    0.0640291 
C     3.8543710    1.1570142    0.1379561 
H     1.8089721    1.5075865    0.1818323 
C     4.0465119    2.2616601    1.1826661 
O     3.6529771    3.5608438    0.8830147 
O     4.6069134    2.0142132    2.4354273 
H     4.7256648    1.0243018    2.6057457 
C     4.2692712    1.6560811   -1.2603579 
H     4.5393402    0.3214525    0.4075642 
C     4.2786322    0.5298616   -2.2699091 
H     5.2725225    2.1340439   -1.2225080 
H     3.5590540    2.4491769   -1.5892014 
C     5.2275589   -0.4070451   -2.4223641 
C     6.3976948   -0.5771979   -1.7553606 
C     7.1931180   -1.6317260   -2.1000897 
C     6.8090584   -2.4897912   -3.0936526 
C     5.6273882   -2.3001976   -3.7469325 
C     4.8598418   -1.2497559   -3.3887092 
H     6.6958391    0.1002747   -0.9605123 
H     8.1346827   -1.7960666   -1.5797791 
H     7.4448108   -3.3308264   -3.3610637 
H     5.3040102   -2.9754631   -4.5324165 
N     3.5973827   -0.8852579   -3.9271153 
C     3.2862938    0.2718226   -3.1392454 
H     3.0470241   -1.3338754   -4.6952588 
H     2.3599230    0.8374460   -3.2144143 
