48
Energy =
C    -0.8515459    0.1568674    2.2493408 
C    -0.7812958    1.1205107    1.2963526 
C     0.0777167    0.1068804    3.2407827 
C     1.0699084    1.0247879    3.2734037 
C     1.1445726    1.9908258    2.3235279 
C     0.2199718    2.0428991    1.3251410 
H    -1.5288510    1.1449986    0.5078254 
H     1.8046815    0.9744765    4.0694531 
H     1.9535951    2.7158954    2.3632392 
H    -1.6516048   -0.5746398    2.2153347 
C     0.3166011    3.1052392    0.2486071 
C     1.2282643    2.7075747   -0.9378815 
H     0.7038644    4.0481405    0.6966366 
H    -0.6973076    3.3527638   -0.1342273 
C     2.6566953    2.4299675   -0.4998722 
O     0.0375898   -0.8761967    4.2345938 
H    -0.7415174   -1.5191401    4.1458840 
O     3.4698775    3.3622527   -0.4207048 
N     0.6457891    1.5938759   -1.7089734 
H     1.3149985    3.5922032   -1.6144930 
H     0.5246712    0.7555576   -1.0962652 
H    -0.3040897    1.8672686   -2.0531019 
N     3.1180987    1.0999852   -0.2157407 
C     4.4944117    0.8437973   -0.6708508 
H     2.5069541    0.3930435    0.2497749 
C     5.2271854    2.1716285   -0.8821621 
O     6.5102949    2.1857269   -1.4208991 
O     4.6698834    3.2397724   -0.5795021 
H     4.1796634    3.2988715    0.2880537 
C     4.4434634    0.0199127   -1.9716886 
H     5.0504654    0.2919790    0.1170932 
C     3.8157028   -1.3354859   -1.7453349 
H     5.4675041   -0.1106008   -2.3875508 
H     3.8573844    0.5839232   -2.7338030 
C     4.3940076   -2.4048195   -1.1783763 
C     5.6577158   -2.5634548   -0.7083336 
C     5.9993394   -3.7663842   -0.1629875 
C     5.0825897   -4.7796141   -0.0957395 
C     3.8187190   -4.5958119   -0.5737309 
C     3.5058505   -3.3974771   -1.1098438 
H     6.3852655   -1.7584348   -0.7613478 
H     7.0055542   -3.9198323    0.2207633 
H     5.3613882   -5.7353517    0.3414756 
H     3.0788033   -5.3876066   -0.5260265 
N     2.2544922   -2.9979515   -1.6516487 
C     2.5408852   -1.6465722   -2.0364334 
H     1.3660198   -3.5420931   -1.7410996 
H     1.8206758   -0.9658373   -2.4865478 
