48
Energy =
C     1.2267421    4.2601771   -0.1757791 
C     0.4690664    3.2075433   -0.5753707 
C     1.8629615    4.2280536    1.0256893 
C     1.7290496    3.1444372    1.8230040 
C     0.9748283    2.0887618    1.4276606 
C     0.3397197    2.1129810    0.2235012 
H    -0.0178938    3.2407633   -1.5467535 
H     2.2409056    3.1286932    2.7785274 
H     0.8937162    1.2206851    2.0770594 
H     1.3381563    5.1184612   -0.8287312 
C    -0.4735790    0.9231903   -0.2416029 
C     0.2721430    0.1018513   -1.3194590 
H    -1.4377238    1.2913923   -0.6547755 
H    -0.7301550    0.2624046    0.6166788 
C     1.5796698   -0.5024252   -0.8063685 
O     2.6644878    5.2886460    1.4620741 
H     2.7437730    6.0428445    0.7883131 
O     1.7409288   -0.7919978    0.5469719 
N    -0.6110627   -0.9498256   -1.8449597 
H     0.5378965    0.7864417   -2.1573506 
H    -0.9212728   -1.5746606   -1.0623102 
H    -1.4664618   -0.5158503   -2.2646690 
N     2.6999508   -0.7135080   -1.6842467 
C     3.7412313    0.3165451   -1.4734740 
H     2.3600472   -0.7134924   -2.6753314 
C     3.3657019    1.6776970   -2.0666268 
O     2.7474615    1.7437706   -3.3094744 
O     3.7165191    2.8737129   -1.4403054 
H     4.1799716    2.7329686   -0.5547526 
C     5.0506474   -0.2155414   -2.0863458 
H     3.9008969    0.4604807   -0.3774313 
C     6.2431153    0.6332629   -1.7024920 
H     4.9535186   -0.2849020   -3.1927291 
H     5.2165833   -1.2570777   -1.7284204 
C     6.7458179    1.6799680   -2.3781872 
C     6.3580697    2.2245454   -3.5604677 
C     7.0396719    3.3087771   -4.0289831 
C     8.0863851    3.8273690   -3.3182300 
C     8.4566862    3.2659652   -2.1325172 
C     7.7672495    2.1935088   -1.6899228 
H     5.5196488    1.8251087   -4.1239337 
H     6.7427404    3.7672648   -4.9693967 
H     8.6210253    4.6948564   -3.6971941 
H     9.2803505    3.6696394   -1.5533902 
N     7.9795140    1.4757397   -0.4821517 
C     6.9466366    0.4857123   -0.5658329 
H     8.6967638    1.6314976    0.2633640 
H     6.7545074   -0.2683646    0.1949269 
