48
Energy =
C     3.2052990   -1.8763596    2.2884337 
C     3.2688505   -0.5751888    1.8812414 
C     2.1010699   -2.3109938    2.9638008 
C     1.0689132   -1.4638020    3.1794944 
C     1.1163775   -0.1860559    2.7236783 
C     2.2104288    0.2607361    2.0515133 
H     4.1601863   -0.2246542    1.3772863 
H     0.1982428   -1.8262188    3.7132250 
H     0.2714315    0.4712074    2.8990449 
H     4.4418342   -2.9189087    1.9481726 
C     2.2533541    1.6640198    1.4755592 
C     1.4134966    1.8616835    0.1765558 
H     3.3071129    1.9472983    1.2532641 
H     1.9291003    2.3845147    2.2573315 
C     1.5821199    0.7473637   -0.8645202 
O     2.0121297   -3.6192829    3.4537618 
H     2.8449242   -4.1712934    3.2903580 
O     0.9432794   -0.4738227   -0.6851201 
N    -0.0088350    2.0795965    0.4911867 
H     1.7902245    2.7908995   -0.3084007 
H    -0.4475018    1.1711619    0.7763299 
H    -0.1176595    2.7551687    1.2821680 
N     2.2591224    0.9813853   -2.1164861 
C     3.7324077    0.8792184   -1.9717307 
H     1.9307504    1.8997459   -2.4935594 
C     4.4443550    2.2176701   -2.1579039 
O     5.2727867    2.6879617   -1.1479897 
O     4.3163492    2.9705586   -3.3253251 
H     3.6402590    2.5746006   -3.9603873 
C     4.2731675   -0.1869940   -2.9579515 
H     4.0138362    0.5541070   -0.9458235 
C     3.5128058   -1.4996803   -2.8724919 
H     5.3477256   -0.3818040   -2.7471064 
H     4.2100699    0.1989457   -3.9978536 
C     3.4534837   -2.3280521   -1.8181355 
C     4.0746568   -2.2391564   -0.6193574 
C     3.6728525   -3.0672788    0.3912847 
C     2.7472004   -4.0484318    0.1372966 
C     2.1887989   -4.1658058   -1.1013298 
C     2.5573856   -3.2855098   -2.0557953 
H     4.8222895   -1.4816402   -0.4276157 
H     4.7278475   -2.5072260    3.3179817 
H     2.4155808   -4.6998296    0.9393289 
H     1.4249690   -4.9083983   -1.3030956 
N     2.0011589   -3.1464508   -3.3557524 
C     2.6562073   -1.9532889   -3.8071446 
H     1.3117315   -3.7603494   -3.8468683 
H     2.4198109   -1.4437378   -4.7377802 
