48
Energy =
C    -2.9307609    0.9859640    0.0850099 
C    -1.7713259    1.6789370   -0.0504564 
C    -3.4172967    0.2573261   -0.9552981 
C    -2.7425598    0.2316012   -2.1266566 
C    -1.5843851    0.9231637   -2.2680895 
C    -1.0915827    1.6527419   -1.2295158 
H    -1.3882100    2.2478742    0.7928054 
H    -3.1407649   -0.3525928   -2.9485805 
H    -1.0516207    0.8828870   -3.2146137 
H    -3.4646988    1.0115087    1.0288238 
C     0.2275287    2.3793154   -1.3741524 
C     1.4195216    1.3994445   -1.2956645 
H     0.3376607    3.1758762   -0.6034709 
H     0.2374447    2.9048641   -2.3558284 
C     2.7130237    2.0469393   -1.7452502 
O    -4.6026532   -0.4766820   -0.8464276 
H    -5.0587777   -0.3914316    0.0555469 
O     3.1611308    3.2003880   -1.1117757 
N     1.5623199    0.8525876    0.0631744 
H     1.2328230    0.5711449   -2.0085304 
H     1.6135726    1.6357336    0.7580685 
H     0.7282781    0.2654970    0.2983568 
N     3.6216838    1.3225811   -2.5854317 
C     4.7054952    0.5779007   -1.9179688 
H     3.4610044    1.2924151   -3.6166934 
C     6.0606612    1.1913758   -2.2584218 
O     6.9225474    0.5400577   -3.1350341 
O     6.4673358    2.4046472   -1.7064859 
H     5.7181828    2.8550107   -1.1976456 
C     4.6367090   -0.9150067   -2.3213766 
H     4.6216943    0.6512895   -0.8071664 
C     3.3661886   -1.5850562   -1.8459628 
H     5.5047569   -1.4552701   -1.8795575 
H     4.7505135   -1.0150336   -3.4227039 
C     2.2524191   -1.8180163   -2.5606591 
C     1.9727966   -1.5365656   -3.8603121 
C     0.7272011   -1.8283755   -4.3337156 
C    -0.2115482   -2.3864591   -3.5109899 
C     0.0904147   -2.6599766   -2.2104144 
C     1.3319594   -2.3712491   -1.7674141 
H     2.7100933   -1.0820423   -4.5144008 
H     0.4787401   -1.6139951   -5.3708456 
H    -1.2035441   -2.6135510   -3.8944528 
H    -0.6457928   -3.0948666   -1.5422884 
N     1.8318589   -2.5416166   -0.4494550 
C     3.1522132   -1.9995146   -0.5846704 
H     1.3630506   -2.9474456    0.3927946 
H     3.8662863   -1.9103261    0.2310393 
