48
Energy =
C    -0.4963048   -0.2043829   -7.0793730 
C    -0.2610724   -0.8396815   -5.9037617 
C    -0.6179236    1.1495270   -7.1121006 
C    -0.4977517    1.8593008   -5.9670444 
C    -0.2664888    1.2284191   -4.7877878 
C    -0.1501480   -0.1275028   -4.7483661 
H    -0.1590830   -1.9213955   -5.8931861 
H    -0.5827702    2.9403255   -6.0079766 
H    -0.1637545    1.8190031   -3.8806265 
H    -0.5849378   -0.7815051   -7.9933361 
C     0.1274810   -0.8361219   -3.4395792 
C     1.6141559   -1.2303187   -3.2975994 
H    -0.5017482   -1.7510956   -3.3825818 
H    -0.1757520   -0.1975650   -2.5806231 
C     2.5419808   -0.0218951   -3.3021937 
O    -0.8691553    1.8334092   -8.3058378 
H    -0.9112146    1.2357979   -9.1237852 
O     3.3793787    0.1609594   -4.3986821 
N     1.7996933   -2.0461737   -2.0847522 
H     1.9151995   -1.8370143   -4.1848994 
H     1.3095482   -1.6194346   -1.2641313 
H     1.3773044   -2.9925817   -2.2356608 
N     2.3650628    1.0450933   -2.3441384 
C     3.5422689    1.9388471   -2.1566983 
H     2.1669065    0.5798264   -1.4304457 
C     3.6393588    3.0865127   -3.1669751 
O     4.5765325    4.0829521   -2.9199798 
O     2.8075532    3.2326524   -4.2757180 
H     2.2973668    2.3883400   -4.4722008 
C     4.8943745    1.1829319   -2.0175691 
H     3.3839394    2.4875805   -1.2010435 
C     4.8643853    0.1265950   -0.9328363 
H     5.6934284    1.9144784   -1.7623017 
H     5.2027105    0.7584670   -2.9963252 
C     4.9590737   -1.2062914   -1.0852803 
C     5.1095879   -1.9537068   -2.2108969 
C     5.1809653   -3.3095877   -2.0850814 
C     5.1061846   -3.8945360   -0.8520799 
C     4.9583323   -3.1267999    0.2638574 
C     4.8873807   -1.7875856    0.1145562 
H     5.1597767   -1.5032567   -3.1971113 
H     5.2919162   -3.9280079   -2.9723390 
H     5.1621784   -4.9761756   -0.7617104 
H     4.8977127   -3.5755686    1.2493390 
N     4.7415367   -0.8191495    1.1435240 
C     4.7384563    0.3934550    0.3798854 
H     4.6587782   -0.9623718    2.1764859 
H     4.6527738    1.3903955    0.8083748 
