48
Energy =
C     0.5624068    5.1838499   -0.2448166 
C     0.5764108    4.4858321   -1.4097949 
C    -0.5303530    5.1435154    0.5624609 
C    -1.6009042    4.4012161    0.2002575 
C    -1.5878935    3.6935482   -0.9578191 
C    -0.4965752    3.7315555   -1.7711450 
H     1.4602969    4.5193190   -2.0455355 
H    -2.4654121    4.3754346    0.8545384 
H    -2.4542872    3.0940267   -1.2237931 
H     1.4314053    5.7657874    0.0450141 
C    -0.4662292    2.9209419   -3.0507202 
C     0.2767743    1.5682383   -2.9065301 
H     0.0108303    3.5187986   -3.8606264 
H    -1.5028652    2.7263758   -3.4041222 
C     1.7734172    1.7372176   -2.6755514 
O    -0.5803184    5.8547567    1.7654276 
H     0.2815490    6.3388333    1.9928548 
O     2.4797709    2.6445238   -3.4609157 
N    -0.3547058    0.7293695   -1.8724589 
H     0.1987846    1.0355825   -3.8810741 
H    -0.2173013    1.1609763   -0.9266221 
H    -1.3848011    0.6658257   -2.0452974 
N     2.5095928    0.7327201   -1.9636878 
C     3.5145267    1.1406509   -0.9607496 
H     2.2566128   -0.2714749   -2.1055784 
C     3.1715040    2.4491621   -0.2392452 
O     2.4609212    2.3900149    0.9534702 
O     3.5133711    3.7095030   -0.7395158 
H     3.9550143    3.6432979   -1.6457570 
C     4.9198228    1.1359884   -1.6058341 
H     3.5131330    0.3793632   -0.1479201 
C     5.3523130   -0.2664937   -1.9735810 
H     5.6643882    1.5679535   -0.8999827 
H     4.9314729    1.7738833   -2.5157510 
C     5.1366799   -0.9007431   -3.1377685 
C     4.5246069   -0.4649537   -4.2692504 
C     4.4275279   -1.3222281   -5.3253826 
C     4.9369654   -2.5882001   -5.2366372 
C     5.5457653   -3.0047875   -4.0900447 
C     5.6303020   -2.1376780   -3.0591869 
H     4.1142079    0.5385959   -4.3403969 
H     3.9408630   -0.9960707   -6.2412301 
H     4.8547134   -3.2656774   -6.0825929 
H     5.9522183   -4.0064061   -4.0017164 
N     6.2096556   -2.3745466   -1.7836500 
C     5.9813716   -1.1141133   -1.1405705 
H     6.6740514   -3.2359782   -1.4156588 
H     6.2689132   -0.8863748   -0.1171456 
