48
Energy =
C    -2.9995206    3.9971712   -0.9898456 
C    -1.9667323    3.9578832   -1.8690783 
C    -3.3999300    2.8633384   -0.3548697 
C    -2.7600756    1.6976442   -0.6019691 
C    -1.7280450    1.6521534   -1.4819113 
C    -1.3276855    2.7829157   -2.1252955 
H    -1.6542149    4.8726484   -2.3654510 
H    -3.0810987    0.8019570   -0.0816114 
H    -1.2197413    0.7076185   -1.6556396 
H    -3.5033083    4.9374497   -0.7943922 
C    -0.1655985    2.7426441   -3.0932846 
C     1.1574717    3.2204645   -2.4390981 
H    -0.4075627    3.3869103   -3.9672994 
H    -0.0334586    1.7141608   -3.5011598 
C     1.6089311    2.2979633   -1.3301395 
O    -4.4647835    2.8685103    0.5523480 
H    -4.8770394    3.7828660    0.7013637 
O     1.0217690    2.3688846   -0.0731204 
N     2.2061260    3.3369953   -3.4706246 
H     1.0145105    4.2131325   -1.9502112 
H     2.2788762    2.4223990   -3.9824829 
H     1.8533797    3.9839890   -4.2172293 
N     2.4363121    1.1792836   -1.6465307 
C     3.8694088    1.4367608   -1.8974381 
H     1.9803781    0.2515419   -1.7836579 
C     4.2437634    2.8636455   -2.3829219 
O     3.3571735    3.7847539   -3.0156023 
O     5.5536186    3.3138853   -2.1901205 
H     6.1296326    2.6457912   -1.7011556 
C     4.4639378    0.3259786   -2.7984542 
H     4.3725139    1.3401368   -0.9104691 
C     3.8552490    0.2886258   -4.1826083 
H     4.3047377   -0.6602253   -2.3083794 
H     5.5659030    0.4458949   -2.8799676 
C     4.2508837    0.9827790   -5.2635377 
C     5.2771167    1.8595800   -5.4123658 
C     5.4529808    2.4527636   -6.6279213 
C     4.6113391    2.1637580   -7.6659736 
C     3.5871393    1.2810981   -7.4936307 
C     3.4339045    0.7078866   -6.2818274 
H     5.9429197    2.0997847   -4.5898864 
H     6.2634787    3.1634980   -6.7690716 
H     4.7569855    2.6420312   -8.6309791 
H     2.9077981    1.0428828   -8.3046333 
N     2.4285274   -0.2159907   -5.8919033 
C     2.7739820   -0.4364804   -4.5192420 
H     1.6422708   -0.6133671   -6.4557231 
H     2.2341435   -1.1037974   -3.8521860 
