48
Energy =
C     1.0888483   -2.7620896    2.9358861 
C     0.6338339   -2.3300353    1.7324832 
C     2.4012083   -3.0811953    3.0958470 
C     3.2503781   -2.9596167    2.0500700 
C     2.7999428   -2.5286482    0.8454903 
C     1.4864209   -2.2160294    0.6768900 
H    -0.4157473   -2.0738250    1.6192259 
H     4.2969521   -3.2063553    2.1898491 
H     3.5000448   -2.4260890    0.0244838 
H     0.4014020   -2.8507567    3.7697987 
C     0.9825703   -1.7258417   -0.6636686 
C     0.8096051   -0.1904611   -0.7051315 
H     0.0080356   -2.2149215   -0.8812430 
H     1.6717814   -2.0451190   -1.4736931 
C     2.1292690    0.5501799   -0.5119234 
O     2.9005112   -3.5383747    4.3203517 
H     2.2095463   -3.5714259    5.0616528 
O     2.6384027    0.6863372    0.7750077 
N     0.1273922    0.1935684   -1.9548519 
H     0.1811870    0.1312155    0.1595144 
H     0.5698138   -0.2909150   -2.7705638 
H    -0.8695105   -0.1270349   -1.9166654 
N     2.7339473    1.3147368   -1.5652901 
C     4.2040273    1.2593695   -1.6735289 
H     2.1256576    1.7314677   -2.3049260 
C     4.7991098    2.6472615   -1.4652470 
O     5.3436262    3.3438795   -2.5392933 
O     4.8107381    3.2470655   -0.2075311 
H     4.2898121    2.7040292    0.4700239 
C     4.6062587    0.6585837   -3.0398688 
H     4.6463977    0.6395224   -0.8581346 
C     4.1530554   -0.7745197   -3.1917275 
H     5.7126823    0.6987656   -3.1587284 
H     4.1857231    1.2851496   -3.8593116 
C     4.6990565   -1.8554747   -2.6140339 
C     5.7669187   -1.9517024   -1.7806579 
C     6.1141752   -3.1850607   -1.3130170 
C     5.3989447   -4.2906308   -1.6827955 
C     4.3346666   -4.1701551   -2.5265339 
C     4.0124010   -2.9398356   -2.9775018 
H     6.3375612   -1.0754142   -1.4868691 
H     6.9639702   -3.2894814   -0.6420025 
H     5.6811780   -5.2700699   -1.3040099 
H     3.7579581   -5.0371485   -2.8305674 
N     2.9455296   -2.5966754   -3.8511897 
C     3.1081089   -1.1741642   -3.9365093 
H     2.2327582   -3.2169742   -4.3000200 
H     2.4748460   -0.5145866   -4.5261264 
