48
Energy =
C     0.9730497   -1.3517461    3.0393155 
C     0.8716253   -1.6064690    1.7101808 
C     1.9580910   -1.9334908    3.7740120 
C     2.8346603   -2.7685688    3.1728860 
C     2.7384076   -3.0268447    1.8452285 
C     1.7564615   -2.4438336    1.1009680 
H     0.0727395   -1.1383492    1.1422046 
H     3.6156806   -3.2282750    3.7673220 
H     3.4560867   -3.6998058    1.3839382 
H     0.2626448   -0.6824793    3.5123265 
C     1.6543538   -2.7261493   -0.3872024 
C     2.3937746   -1.6917113   -1.2803086 
H     0.5814636   -2.7766302   -0.6792059 
H     2.0600397   -3.7391360   -0.6002545 
C     1.7069693   -0.3061342   -1.2688833 
O     2.0906271   -1.6913649    5.1454278 
H     1.3964532   -1.0530028    5.5181238 
O     0.3163467   -0.3143611   -1.2287111 
N     3.8283276   -1.6792974   -0.9462371 
H     2.2788327   -2.0572562   -2.3241853 
H     3.9604637   -1.3540208    0.0421738 
H     4.2116520   -2.6533528   -0.9950869 
N     2.2860482    0.9638970   -1.6662633 
C     3.7203001    1.0565037   -2.0345637 
H     2.0974645    1.5890172   -0.8478420 
C     4.1944014    2.5100326   -2.0952314 
O     5.5342966    2.7872507   -1.8593073 
O     3.3633426    3.5575128   -2.4950378 
H     2.4308000    3.2375269   -2.7129782 
C     3.9963212    0.3680785   -3.3937033 
H     4.3565536    0.6129560   -1.2429650 
C     3.1321791    0.9147941   -4.5123147 
H     3.8441177   -0.7244234   -3.3100120 
H     5.0731854    0.4728738   -3.6497592 
C     3.4425454    1.9075149   -5.3636246 
C     4.5729070    2.6555109   -5.4599649 
C     4.6285209    3.6261628   -6.4167316 
C     3.5667925    3.8342473   -7.2526998 
C     2.4407183    3.0754947   -7.1346311 
C     2.4097101    2.1208605   -6.1814129 
H     5.4129983    2.5099255   -4.7858517 
H     5.5185297    4.2452568   -6.5075362 
H     3.6171719    4.6144198   -8.0086327 
H     1.5857992    3.2348946   -7.7834872 
N     1.3331447    1.2452936   -5.8807332 
C     1.8797025    0.5037263   -4.7829646 
H     0.3968398    1.1576583   -6.3391000 
H     1.3378430   -0.2609317   -4.2302136 
