48
 energy: -8.718968428347 gnorm: 0.000619430963 xtb: 6.6.0 (2ccbbd7)
C            7.09284324287910        1.18907615626266        2.14435886087677
C            5.79905081410753        1.70383146465115        2.24537561214997
C            7.57878048785674        0.63964872957759        0.93436247240817
C            6.77239114934825        0.64934119917138       -0.16936057965118
C            5.42941816684314        1.27744352863841       -0.15172370155462
C            4.95476041420893        1.75426273535298        1.18014464339839
H            5.44857539061304        2.04836164110374        3.20320281511296
H            7.16130822270710        0.23764547266126       -1.08211732502944
H            5.11945801739248        1.89223384733746       -1.20428837080849
H            7.73122302412562        1.17490236842174        3.00890922704690
C            3.52413369251328        2.16402251918251        1.35459593218481
C            2.49674861474282        1.02162175535906        1.12309448247796
H            3.30009451678302        3.00155587264028        0.68636462906674
H            3.40169712965965        2.56945928513219        2.36503591902409
C            1.82570791678905        1.07600240584206       -0.24062910213817
O            8.84538201386758        0.09142973132820        0.84868319704289
H            9.29745855171284        0.15346994585741        1.71790855447664
O            0.64146594167060        1.35615310366308       -0.28755830681370
N            3.03396216159162       -0.30580285286644        1.38744330684351
H            1.66606895695218        1.15408217894854        1.83910495291804
H            3.65907253127894       -0.59189094299735        0.64668577939321
H            3.55804015335233       -0.31482311163641        2.25383960835345
N            2.53183562183248        0.87206891071171       -1.42070431289758
C            3.89456591439829        1.47787240837683       -1.63330830077633
H            1.98993039815727        0.91288891532447       -2.27984850258533
C            3.59996830086098        2.99626918728503       -1.73298634231467
O            4.63701453688613        3.88692909690241       -1.77105778187305
O            2.29424838930144        3.44836256571991       -1.80454552202636
H            1.65860811367349        2.81448316690929       -1.38568184615897
C            4.34069806063027        0.94477771060051       -3.04312220863185
H            4.48638373157349        0.70688905575887       -0.73223278864816
C            5.81272979908239        0.82674616776843       -3.26595838348112
H            3.91176655356038        1.58905917104567       -3.81746406588787
H            3.88822029315076       -0.04004279276354       -3.20138938702092
C            6.78605175999423        1.85771121940054       -3.12334235364460
C            6.70108027576124        3.18254666180013       -2.68451360809797
C            7.83664035469304        3.93240980020745       -2.61359719966928
C            9.08288676304661        3.39093752217987       -2.97230543821926
C            9.19706915992824        2.09124950769859       -3.38619032609626
C            8.03832209261448        1.30704943399957       -3.45904453666909
H            5.61695659915934        3.55716031218489       -2.23957372848768
H            7.77665257768920        4.94868321287538       -2.26159762711179
H            9.96393188721531        4.00749079211577       -2.90631524213896
H           10.14837150080226        1.66240621748699       -3.64525433324213
N            7.82775860888178       -0.02045367816685       -3.78725671895142
C            6.48645089209008       -0.29736355809536       -3.67775198146094
H            8.56114310967271       -0.67332047465094       -4.06917948631312
H            6.03760836836236       -1.25610916549318       -3.88138860498668
