48
Energy =
C    -2.7811625   -1.6520852    2.1522546 
C    -1.5331082   -1.3726965    1.6980876 
C    -3.8251981   -1.7207654    1.2835677 
C    -3.6123895   -1.5083193   -0.0350052 
C    -2.3665783   -1.2286666   -0.4948152 
C    -1.3174866   -1.1633271    0.3702019 
H    -0.7080664   -1.3177895    2.4044252 
H    -4.4536427   -1.5635380   -0.7171005 
H    -2.2181080   -1.0553786   -1.5571842 
H    -2.9422195   -1.8190050    3.2118105 
C     0.0707038   -0.8333802   -0.1310939 
C     0.4333581    0.6525617    0.0998075 
H     0.1700575   -1.0864170   -1.2087391 
H     0.8047433   -1.4838004    0.3990905 
C     1.9141063    0.8941808   -0.1590235 
O    -5.1237518   -2.0053503    1.7185119 
H    -5.1998832   -2.1527321    2.7189955 
O     2.8402424    0.1982362    0.6128519 
N    -0.4328226    1.5312909   -0.7093190 
H     0.3022154    0.8976446    1.1808247 
H    -0.5042904    1.1713849   -1.6903640 
H    -1.4023464    1.5254629   -0.3111341 
N     2.3741683    1.7380493   -1.2308165 
C     3.8248365    1.7806058   -1.5139867 
H     1.6907033    2.3347648   -1.7518060 
C     4.2858319    3.1646389   -1.9673040 
O     5.4032668    3.2864812   -2.7827781 
O     3.7043562    4.3340189   -1.4774704 
H     3.0112942    4.1440491   -0.7690055 
C     4.1791204    0.6532695   -2.5157569 
H     4.4099605    1.6111504   -0.5801894 
C     3.3813187    0.7254499   -3.8051365 
H     3.9693979   -0.3243728   -2.0268285 
H     5.2703899    0.6572947   -2.7240469 
C     3.7881163    1.1873441   -5.0015621 
C     4.9917067    1.6850207   -5.3881769 
C     5.1450200    2.0852136   -6.6833147 
C     4.1080405    1.9770780   -7.5671823 
C     2.9113939    1.4670260   -7.1615805 
C     2.7828091    1.0816577   -5.8746509 
H     5.8214274    1.7716425   -4.6946639 
H     6.0970237    2.4954895   -7.0126547 
H     4.2379119    2.2994765   -8.5974324 
H     2.0790950    1.3713076   -7.8506735 
N     1.6318206    0.5185877   -5.2630397 
C     2.1059210    0.3144453   -3.9268364 
H     0.6956871    0.3092136   -5.6798131 
H     1.5125287   -0.1144942   -3.1241450 
