48
Energy =
C     0.2855203   -0.9878982   -5.1128648 
C    -0.1620887   -0.8845019   -3.8355081 
C     1.2895053   -1.8503918   -5.4200113 
C     1.8601817   -2.5851377   -4.4408486 
C     1.4786443   -2.4247269   -3.1379224 
C     0.4198558   -1.6077396   -2.8377777 
H    -1.0280333   -0.2637816   -3.6389220 
H     2.6290555   -3.3017361   -4.7038456 
H     2.4324176   -4.5778380   -1.0589108 
H    -0.1928045   -0.4108276   -5.8970817 
C    -0.1964642   -1.6484600   -1.4490122 
C     0.0580961   -0.4124716   -0.5458856 
H     0.1813977   -2.5405763   -0.9044481 
H    -1.2907368   -1.8191543   -1.5469214 
C     1.4904289    0.0989155   -0.5772935 
O     1.7425978   -2.0129730   -6.7325512 
H     1.2706495   -1.4221959   -7.4088508 
O     2.2867533   -0.0716954    0.5512309 
N    -0.9315302    0.6519265   -0.7948888 
H    -0.0752350   -0.7472869    0.5116251 
H    -0.9371871    0.9399667   -1.7965706 
H    -1.8922417    0.3051872   -0.5629183 
N     1.9396642    0.9864654   -1.6095281 
C     3.3471920    0.8636904   -2.0266153 
H     1.2463952    1.5961302   -2.0943712 
C     3.7991740    2.1005004   -2.7898682 
O     4.9122508    2.8028901   -2.3460076 
O     3.1615596    2.5213539   -3.9583979 
H     2.4180889    1.8951550   -4.2283824 
C     3.5427530   -0.4241404   -2.8772672 
H     3.9895773    0.8559428   -1.1138672 
C     3.8957341   -1.6579679   -2.0015072 
H     4.3806158   -0.2890808   -3.5978225 
H     2.7069864   -0.4481981   -3.5674089 
C     5.1102164   -1.6123309   -1.3896483 
C     6.1447601   -0.7224661   -1.5375710 
C     7.2718406   -0.8860762   -0.7895764 
C     7.3617668   -1.9211707    0.0912258 
C     6.3248151   -2.7906703    0.2208137 
C     5.2236476   -2.5999529   -0.5417095 
H     6.1043552    0.1099267   -2.2317526 
H     8.0985722   -0.1866176   -0.8932449 
H     8.2582602   -2.0485242    0.6928777 
H     6.3729633   -3.6158131    0.9230657 
N     4.0581478   -3.3715208   -0.5229882 
C     3.1882093   -2.8443070   -1.6091484 
H     3.9984018   -4.1950352    0.1240067 
H     1.7778899   -3.7591327   -2.0679740 
