48
Energy =
C     1.3843177   -0.4008848    2.5529337 
C     2.2991689    0.4478096    2.0200316 
C     0.3768016    0.0799761    3.3283932 
C     0.2954364    1.4072306    3.5699102 
C     1.2075611    2.2600306    3.0399926 
C     2.2093429    1.7882010    2.2463156 
H     3.1088596    0.0422073    1.4212486 
H    -0.5075010    1.7776231    4.1975239 
H     1.1301190    3.3196675    3.2640858 
H     1.4641683   -1.4659577    2.3634791 
C     3.2366892    2.7351685    1.6555825 
C     2.7450506    3.5261902    0.4088834 
H     4.1648574    2.1805646    1.3920517 
H     3.5624127    3.4514090    2.4414107 
C     2.2696585    2.6535110   -0.7603263 
O    -0.5814344   -0.7668558    3.8940716 
H    -0.4554473   -1.7464447    3.6638540 
O     1.1996245    3.0729128   -1.5413169 
N     1.7303582    4.5264780    0.7924010 
H     3.6163002    4.0860041   -0.0075090 
H     0.8083881    4.0634396    0.9748362 
H     2.0195097    5.0595541    1.6453085 
N     2.8183344    1.3524010   -1.0411240 
C     4.2523855    1.1637920   -1.3706620 
H     2.1919580    0.5471089   -0.8278799 
C     5.0164584    2.4730310   -1.5500620 
O     5.9100452    2.8686407   -0.5642963 
O     4.7626296    3.3403846   -2.6082903 
H     4.0034509    3.0066011   -3.1862421 
C     4.3670884    0.2626025   -2.6304793 
H     4.7567528    0.6596477   -0.5156895 
C     4.5324273   -1.2187982   -2.3214428 
H     5.2378938    0.5977854   -3.2346530 
H     3.4710910    0.3937172   -3.2776187 
C     5.2638851   -2.1032819   -3.0262650 
C     6.0420542   -1.9174732   -4.1263191 
C     6.6819165   -2.9971670   -4.6604492 
C     6.5347494   -4.2347849   -4.0996456 
C     5.7448926   -4.4010628   -3.0020037 
C     5.1247821   -3.3176063   -2.4893847 
H     6.1607921   -0.9416436   -4.5852827 
H     7.3108838   -2.8727844   -5.5390050 
H     7.0466298   -5.0905849   -4.5328973 
H     5.6118742   -5.3775389   -2.5487540 
N     4.2507357   -3.2834454   -1.3727326 
C     3.9014688   -1.8948805   -1.3403226 
H     3.9472029   -4.0636578   -0.7460211 
H     3.2096195   -1.4695826   -0.6237200 
