48
Energy =
C    -0.7948729   -3.9342380    0.9195528 
C    -0.1854557   -2.9397919    0.2256098 
C    -1.0559632   -5.1262452    0.3192173 
C    -0.7024928   -5.3153760   -0.9723436 
C    -0.0924671   -4.3247715   -1.6709588 
C     0.1651005   -3.1272678   -1.0767409 
H     0.0256874   -1.9961062    0.7219515 
H    -0.9120515   -6.2716694   -1.4385684 
H     0.1897976   -4.4984907   -2.7060496 
H    -1.0697421   -3.7744464    1.9564755 
C     0.8611123   -2.0287448   -1.8500067 
C     2.3910894   -2.2394024   -1.9004154 
H     0.6298183   -1.0347783   -1.4071795 
H     0.4506454   -2.0080038   -2.8847576 
C     3.0356080   -1.2852866   -2.8880387 
O    -1.6834258   -6.1713972    1.0053737 
H    -1.9106111   -5.9521365    1.9690362 
O     3.5703386   -1.7688052   -4.0785015 
N     2.9827334   -2.0935062   -0.5569844 
H     2.6095250   -3.2626788   -2.2919869 
H     2.5949777   -1.2470521   -0.0751030 
H     2.7237586   -2.9236313    0.0280722 
N     3.2142213    0.0965805   -2.5595901 
C     4.5761236    0.5003531   -2.1848969 
H     2.4017081    0.7517196   -2.5951393 
C     4.5390299    1.5253819   -1.0546196 
O     4.4032958    2.8780653   -1.3525613 
O     4.5845922    1.1391536    0.2851336 
H     4.6262835    0.1336133    0.3873293 
C     5.2872487    1.0297974   -3.4462082 
H     5.1427149   -0.3808871   -1.7984676 
C     6.7663401    1.2264390   -3.2048235 
H     4.8167144    1.9821065   -3.7791347 
H     5.1402906    0.3094129   -4.2834015 
C     7.7161773    0.2796192   -3.2506654 
C     7.6127824   -1.0429950   -3.5411177 
C     8.7445049   -1.8033569   -3.5055387 
C     9.9469567   -1.2383012   -3.1804882 
C    10.0246656    0.0910572   -2.8869742 
C     8.8916604    0.8228595   -2.9319659 
H     6.6571753   -1.4976422   -3.7901062 
H     8.6887227   -2.8655313   -3.7324588 
H    10.8435325   -1.8524470   -3.1508399 
H    10.9687883    0.5532489   -2.6195477 
N     8.7494685    2.2067729   -2.6437215 
C     7.3389986    2.3853667   -2.8342671 
H     9.4789144    2.9050291   -2.3713594 
H     6.8048882    3.3199055   -2.6622404 
