48
Energy =
C    -1.4493887   -1.5350640   -6.0778180 
C    -0.3851569   -1.8405075   -5.2907047 
C    -2.7063481   -1.5447040   -5.5606869 
C    -2.8903719   -1.8598173   -4.2590834 
C    -1.8304172   -2.1638103   -3.4680410 
C    -0.5675183   -2.1563537   -3.9792313 
H     0.6154194   -1.8290462   -5.7162749 
H    -3.8983844   -1.8638632   -3.8588004 
H    -2.0023638   -2.4112101   -2.4241291 
H    -1.2932789   -1.2814018   -7.1212675 
C     0.6181554   -2.4820767   -3.0885357 
C     1.3445766   -1.2340620   -2.5106522 
H     1.3415664   -3.1144350   -3.6485917 
H     0.2804808   -3.1154407   -2.2389047 
C     2.3099864   -0.5583026   -3.4923238 
O    -3.8232643   -1.2355115   -6.3429318 
H    -3.6020590   -1.0010294   -7.3045800 
O     2.5916030   -1.1417470   -4.7256555 
N     0.3808847   -0.2739667   -1.9452690 
H     1.9933060   -1.5861797   -1.6783708 
H    -0.1796753    0.1607882   -2.7172790 
H    -0.2844639   -0.7708282   -1.3088281 
N     2.9181112    0.7070441   -3.1765583 
C     4.4071127    0.7753788   -3.1277288 
H     2.5190929    1.0605313   -2.2767118 
C     4.8970028    1.8493895   -4.0864634 
O     5.8281086    2.7804027   -3.6401940 
O     4.5023108    1.8799030   -5.4239860 
H     3.8069094    1.1677805   -5.6126597 
C     5.1858196   -0.5480710   -3.4005146 
H     4.7065187    1.1441725   -2.1225618 
C     4.9670314   -1.6247051   -2.3594769 
H     6.2767688   -0.3281407   -3.4226650 
H     4.9460337   -0.9291888   -4.4188968 
C     5.3767866   -1.6121463   -1.0805093 
C     6.0889306   -0.6762239   -0.4002513 
C     6.3877937   -0.9140774    0.9089471 
C     5.9840242   -2.0737059    1.5103527 
C     5.2834777   -3.0057654    0.8043905 
C     4.9959634   -2.7460933   -0.4880729 
H     6.4336802    0.2359272   -0.8780539 
H     6.9570634   -0.1804638    1.4754294 
H     6.2304795   -2.2573742    2.5532570 
H     4.9671322   -3.9365460    1.2630064 
N     4.3079627   -3.5911336   -1.3989716 
C     4.3482902   -2.7965100   -2.5920321 
H     3.8828997   -4.5333925   -1.2384151 
H     3.9254136   -3.0957934   -3.5507929 
