48
Energy =
C    -2.9079953    1.5368638   -4.2327926 
C    -2.0759474    0.4691034   -4.1340848 
C    -3.1067760    2.3502889   -3.1611403 
C    -2.4691496    2.0906899   -1.9973415 
C    -1.6381768    1.0233753   -1.8921141 
C    -1.4417554    0.2007083   -2.9597444 
H    -1.9216661   -0.1685579   -5.0011510 
H    -2.6294448    2.7517392   -1.1522663 
H    -1.1242525    0.8373997   -0.9508166 
H    -3.4122940    1.7401139   -5.1715201 
C    -0.4917893   -0.9734809   -2.8583896 
C     0.9398013   -0.5872632   -3.2868512 
H    -0.8612802   -1.8052612   -3.4973668 
H    -0.4742278   -1.3699972   -1.8174626 
C     1.5393112    0.4551215   -2.3548054 
O    -3.9568070    3.4581795   -3.2295349 
H    -4.3950075    3.5883517   -4.1348645 
O     1.5063565    0.2678631   -0.9762304 
N     1.7846194   -1.7917036   -3.3437402 
H     0.9047819   -0.1288766   -4.3027278 
H     1.8156968   -2.2450799   -2.3968809 
H     1.3741388   -2.4866679   -4.0113800 
N     2.1805522    1.6210764   -2.8861347 
C     3.6282374    1.7493890   -2.6335481 
H     1.6248324    2.2736639   -3.4834761 
C     4.1129771    3.1797881   -2.8606122 
O     4.8250097    3.8272332   -1.8593698 
O     3.9109459    3.8427882   -4.0741573 
H     3.3825508    3.2839863   -4.7247910 
C     4.3962793    0.7300698   -3.5065804 
H     3.8257169    1.5347617   -1.5547620 
C     5.8532395    0.6407761   -3.1069007 
H     4.2927146    0.9747667   -4.5841736 
H     3.9430799   -0.2792141   -3.3844959 
C     6.8860988    1.3237041   -3.6286164 
C     6.9136444    2.2296706   -4.6400034 
C     8.1100130    2.7929729   -4.9738085 
C     9.2488051    2.4465758   -4.3009014 
C     9.1976686    1.5356305   -3.2881238 
C     8.0022920    0.9921626   -2.9764488 
H     6.0124049    2.5175362   -5.1708441 
H     8.1557432    3.5282211   -5.7736318 
H    10.1972581    2.9049260   -4.5694830 
H    10.0900717    1.2550204   -2.7392234 
N     7.7324016    0.0421308   -1.9554279 
C     6.3165994   -0.1244678   -2.1027160 
H     8.3906877   -0.4163864   -1.2847176 
H     5.7031237   -0.7649075   -1.4716693 
