48
Energy =
C     1.5967664    4.3835199    3.5891860 
C     1.5613278    3.7439132    2.3928691 
C     0.9657373    5.5780497    3.7446292 
C     0.3035340    6.1248557    2.6998909 
C     0.2654316    5.4902510    1.5007946 
C     0.8927249    4.2925989    1.3414906 
H     2.0714511    2.7900583    2.2839698 
H    -0.1948358    7.0783832    2.8371135 
H    -0.2698463    5.9494248    0.6736822 
H     2.1315031    3.9375575    4.4209205 
C     0.8690338    3.5864879    0.0047373 
C     2.2028896    3.7419443   -0.7636081 
H     0.0279438    3.9552005   -0.6267619 
H     0.6611339    2.5061672    0.1781401 
C     2.2150153    2.8553783   -1.9940748 
O     0.9829871    6.2636476    4.9635123 
H     1.5017217    5.7903379    5.6953080 
O     1.3351514    3.1225915   -3.0354755 
N     2.4305847    5.1449035   -1.1425381 
H     3.0486668    3.4018195   -0.1220999 
H     1.6269888    5.4979332   -1.7153666 
H     2.5124002    5.7441380   -0.2887077 
N     2.7946418    1.5469972   -1.9302836 
C     4.2691407    1.4027450   -1.8852332 
H     2.1386488    0.7363036   -1.9766608 
C     5.0325756    2.6062639   -2.4441348 
O     5.9734142    3.2360547   -1.6395801 
O     4.8346598    3.0737422   -3.7417025 
H     4.0634667    2.5977606   -4.1883362 
C     4.6897051    0.1089648   -2.6180270 
H     4.5832501    1.3234326   -0.8198983 
C     4.2161788   -1.1342775   -1.8955668 
H     5.8010769    0.0627231   -2.6882457 
H     4.3168450    0.1272776   -3.6641099 
C     3.1714248   -1.9167690   -2.2161369 
C     2.2900584   -1.8219640   -3.2462695 
C     1.3008041   -2.7562174   -3.3416154 
C     1.2070874   -3.7599378   -2.4179147 
C     2.1016400   -3.8353102   -1.3921950 
C     3.0715178   -2.8998201   -1.3190149 
H     2.3571005   -1.0247980   -3.9804463 
H     0.5824994   -2.7022990   -4.1566375 
H     0.4159438   -4.5010237   -2.5011524 
H     2.0406187   -4.6244349   -0.6504143 
N     4.0886555   -2.7950290   -0.3331549 
C     4.7842202   -1.6242027   -0.7795445 
H     4.2742641   -3.4053876    0.4956311 
H     5.6503982   -1.1956246   -0.2799546 
