48
Energy =
C     0.9129671    0.4717929   -5.4242768 
C    -0.0287386    0.7260746   -4.4800083 
C     1.9003538    1.3757199   -5.6667859 
C     1.9301030    2.5355234   -4.9718106 
C     0.9897743    2.7951978   -4.0295890 
C     0.0047497    1.8899442   -3.7750171 
H    -0.8012710   -0.0128553   -4.2828593 
H     2.7279992    3.2458745   -5.1626662 
H     1.0480274    3.7204427   -3.4586650 
H     0.8822776   -0.4623207   -5.9747394 
C    -1.0072803    2.1474889   -2.6780219 
C    -0.6127843    1.4501499   -1.3549556 
H    -2.0060621    1.7886605   -3.0079193 
H    -1.1070860    3.2411713   -2.4947440 
C     0.7300431    1.9364232   -0.8346683 
O     2.9014811    1.1311135   -6.6121637 
H     2.8029001    0.2455968   -7.0966815 
O     0.9982962    3.1468701   -0.8159436 
N    -1.6612281    1.6565849   -0.3457571 
H    -0.5107072    0.3564357   -1.5410887 
H    -1.7549558    2.6818277   -0.1471449 
H    -2.5808060    1.3174516   -0.7120588 
N     1.7851937    1.0040001   -0.5499087 
C     3.0924324    1.4110956   -1.0979391 
H     1.5921498    0.1077950   -0.0509279 
C     3.0853624    2.9210672   -1.3659983 
O     4.1561602    3.5264767   -2.0165196 
O     2.1034559    3.6057278   -1.0338732 
H     1.6777193    3.4484517   -0.1419961 
C     3.3748747    0.5866803   -2.3822679 
H     3.8883030    1.2514705   -0.3375824 
C     4.2444243   -0.6302495   -2.1298240 
H     3.8543395    1.2364650   -3.1426898 
H     2.4188049    0.2455573   -2.8329635 
C     5.3047201   -1.0313701   -2.8563492 
C     5.8849593   -0.4675392   -3.9501203 
C     6.9601473   -1.0923546   -4.5102253 
C     7.4342441   -2.2599669   -3.9812194 
C     6.8344406   -2.8119550   -2.8894274 
C     5.7740416   -2.1744674   -2.3505710 
H     5.5152477    0.4550635   -4.3859227 
H     7.4410925   -0.6590363   -5.3841231 
H     8.2909416   -2.7519095   -4.4348215 
H     7.1939889   -3.7411877   -2.4608783 
N     5.0034927   -2.5924781   -1.2345228 
C     4.0281566   -1.5458651   -1.1669100 
H     5.1158581   -3.4372304   -0.6288286 
H     3.2194549   -1.5178703   -0.4440108 
