48
 energy: -9.288962228519 gnorm: 0.000373584202 xtb: 6.6.0 (2ccbbd7)
C           -3.30765880949685        2.42373667377511        0.72553184160120
C           -1.96509315544232        2.24707745523671        0.48816831035657
C           -4.07526589413993        1.39008170074557        1.26313161739999
C           -3.44471600483024        0.17997439519610        1.55102702424648
C           -2.10156620150621        0.01197254043100        1.31313923645258
C           -1.34073191615858        1.04369256753545        0.78225105368714
H           -1.38246887324149        3.04849396257749        0.06708295055661
H           -4.03669032042988       -0.61689654728267        1.96441909786000
H           -1.62812918884696       -0.92812691229285        1.53900809535699
H           -3.78029753926521        3.36205098642903        0.49674500075734
C            0.11199361546667        0.85125156676567        0.47934428174165
C            0.37870681317000        0.54845656658852       -0.99671824373938
H            0.51453953465137        0.03329869460048        1.08403814512502
H            0.67086482110200        1.74325197472012        0.78085804853766
C            1.86163423286778        0.45483319575875       -1.24722695724011
O           -5.42677316046690        1.53373375914219        1.51250488032698
H           -5.72006990194491        2.43770603669039        1.26710431127919
O            2.41422253815273       -0.59053789404186       -0.97623234498981
N           -0.22894616305912       -0.70123084772107       -1.42368737555469
H           -0.03730608887546        1.35591826760733       -1.61799015643479
H            0.32978598727261       -1.45283688915242       -1.03411291108871
H           -1.16886856753481       -0.78182935807327       -1.05830237029117
N            2.50847391197504        1.55541089280803       -1.76369083526581
C            3.96294570818739        1.62226128828550       -1.78807822633702
H            2.04791198071097        2.46709233034407       -1.75984223641491
C            4.41561319694919        2.94171039442403       -2.37757185443982
O            5.36057551565208        3.50133256362185       -1.86522425199887
O            3.72899745487776        3.37902490661204       -3.46002551781620
H            3.04389074136817        2.71945725886737       -3.71899510086936
C            4.59565957876917        0.43996369669355       -2.52703939417252
H            4.28826134771562        1.60508563724636       -0.73650240214289
C            4.26246724297975        0.39208244007948       -3.98020328063516
H            4.26743519437039       -0.49220453879781       -2.05538924126834
H            5.68422304241166        0.47859704900801       -2.41391511955035
C            3.13117132336841       -0.23894592971009       -4.57811752978953
C            2.05822134454677       -0.97621714712826       -4.05180058669978
C            1.10232287275744       -1.45132361694051       -4.90443508209909
C            1.18079391709355       -1.21243485969321       -6.28588260244438
C            2.21116479277728       -0.48914477499650       -6.82194501099688
C            3.19938640077896        0.00782290916908       -5.96254656586976
H            1.98877813460758       -1.12377901600712       -2.98996440579657
H            0.26933486101979       -2.00901656824487       -4.50982900548895
H            0.41179079127055       -1.60163125231649       -6.93239819640154
H            2.27538291152569       -0.29526084170768       -7.87756654661510
N            4.32932688610016        0.77281965611636       -6.19128143914954
C            4.95739538207247        1.00608754337768       -4.99311102400698
H            4.61332922467117        1.13594695701945       -7.10288191875208
H            5.84417721538056        1.60699624683715       -4.86707479402326
