48
Energy =
C     0.4784347    5.2786855    0.4823934 
C     0.3551189    3.9279796    0.4772312 
C     1.1547909    5.8991111    1.4850672 
C     1.7047496    5.1618549    2.4765089 
C     1.5875802    3.8097027    2.4750628 
C     0.9121846    3.1824965    1.4726275 
H    -0.1903135    3.4479608   -0.3324227 
H     2.2407371    5.6703312    3.2709759 
H     2.0375513    3.2359260    3.2811201 
H     0.0339344    5.8604526   -0.3177684 
C     0.7886594    1.6714122    1.4602954 
C     1.8478402    0.9671928    0.5772283 
H    -0.2277336    1.3936626    1.0952627 
H     0.8489932    1.2718016    2.4964615 
C     1.7131580    1.3414493   -0.8991386 
O     1.2992045    7.2894679    1.5224383 
H     0.8752407    7.7714051    0.7367103 
O     0.5135935    1.0448088   -1.5357452 
N     3.2039840    1.1650713    1.1214794 
H     1.6234040   -0.1262866    0.5932164 
H     3.4302144    2.1845020    1.2043826 
H     3.2543691    0.7634349    2.0873108 
N     2.6281134    2.2256318   -1.5692737 
C     3.8834956    1.5405759   -1.9583685 
H     2.8220195    3.0243376   -0.9240054 
C     4.9421688    2.5496184   -2.3777431 
O     6.2264014    2.4306531   -1.8625184 
O     4.6755212    3.5631511   -3.2961512 
H     3.7151831    3.5297360   -3.6091421 
C     3.6160250    0.5302032   -3.1086716 
H     4.3387605    1.0211862   -1.0848852 
C     3.3507876   -0.8652210   -2.5868973 
H     4.4853955    0.4724706   -3.8032278 
H     2.7563636    0.8797809   -3.7247199 
C     4.2508471   -1.6964711   -2.0388023 
C     5.5810511   -1.5216993   -1.8295902 
C     6.2820869   -2.5326908   -1.2408872 
C     5.6507878   -3.6899621   -0.8758147 
C     4.3139874   -3.8429411   -1.0975753 
C     3.6425105   -2.8280118   -1.6810211 
H     6.0845394   -0.6026946   -2.1198506 
H     7.3485380   -2.4166049   -1.0617718 
H     6.2171324   -4.4914754   -0.4077189 
H     3.7977440   -4.7543748   -0.8151776 
N     2.2584359   -2.7823154   -1.9970377 
C     2.1533104   -1.4765608   -2.5818959 
H     1.5141008   -3.5011788   -1.8443791 
H     1.2284948   -1.0417557   -2.9574583 
