48
Energy =
C    -1.0391228    3.9021400   -3.8794922 
C    -0.0944331    3.3576859   -3.0712238 
C    -0.7136994    4.3028213   -5.1374589 
C     0.5565652    4.1558771   -5.5784698 
C     1.5050159    3.6118944   -4.7748463 
C     1.1849601    3.2115051   -3.5139447 
H    -0.3695288    3.0364379   -2.0699163 
H     0.8048427    4.4791673   -6.5842435 
H     2.5199396    3.5022420   -5.1513111 
H    -2.0560892    4.0152918   -3.5192971 
C     2.2401849    2.5902855   -2.6271715 
C     2.5144773    1.1085983   -2.9933071 
H     1.9623571    2.6664608   -1.5523844 
H     3.1805082    3.1873423   -2.7346334 
C     3.7720393    0.5969402   -2.3005740 
O    -1.6638367    4.8653084   -5.9952108 
H    -2.5909872    4.9497501   -5.5930442 
O     3.6613185   -0.2289153   -1.1849823 
N     1.3424571    0.2747941   -2.6759123 
H     2.7322254    1.0272167   -4.0831153 
H     1.1121950    0.3423271   -1.6555882 
H     0.5106831    0.5805926   -3.2313514 
N     4.9901140    1.3301815   -2.4843620 
C     5.9962065    0.7333861   -3.4090256 
H     5.4177706    1.4219516   -1.5327431 
C     6.6459857    1.8449996   -4.2173044 
O     8.0277951    1.9858912   -4.1911559 
O     5.8899752    2.7159025   -5.0051205 
H     4.9075706    2.4921085   -4.9660355 
C     5.4614071   -0.3704710   -4.3728888 
H     6.8345647    0.3011916   -2.8147519 
C     5.1855461   -1.6951142   -3.6841027 
H     6.2301305   -0.5732875   -5.1545616 
H     4.5801366    0.0015959   -4.9285422 
C     4.0475730   -2.4115165   -3.7227417 
C     2.8712385   -2.1557916   -4.3520159 
C     1.8579735   -3.0585134   -4.2289258 
C     2.0320349   -4.1991374   -3.4951004 
C     3.2246349   -4.4430624   -2.8823505 
C     4.2110033   -3.5313003   -3.0151438 
H     2.7176455   -1.2631486   -4.9486315 
H     0.9090426   -2.8646556   -4.7198680 
H     1.2186724   -4.9145560   -3.4020653 
H     3.3846040   -5.3448480   -2.3006805 
N     5.5221994   -3.6081892   -2.4774823 
C     6.0900062   -2.3863626   -2.9649564 
H     5.9586884   -4.3583123   -1.8939309 
H     7.1178905   -2.0792829   -2.7881601 
