48
Energy =
C     1.6054402    6.9684390   -5.5735590 
C     1.2336825    5.9564461   -4.7495745 
C     2.9220699    7.1945337   -5.8283791 
C     3.8589881    6.4048298   -5.2559181 
C     3.4935631    5.3915761   -4.4311764 
C     2.1763236    5.1625048   -4.1703281 
H     0.1768381    5.7861838   -4.5603574 
H     4.9063745    6.5932147   -5.4668745 
H     4.2650499    4.7676647   -3.9822059 
H     0.8467175    7.5953817   -6.0294388 
C     1.7696392    4.0209106   -3.2653469 
C     1.7827321    2.6609922   -4.0078936 
H     0.7641304    4.2009293   -2.8238617 
H     2.4677007    3.9955419   -2.3966153 
C     1.7952158    1.5074174   -3.0202493 
O     3.3375760    8.2281395   -6.6737472 
H     2.5772401    8.7763903   -7.0606911 
O     0.8613204    1.4657503   -1.9909841 
N     0.6314051    2.5534559   -4.9210072 
H     2.7262178    2.5670691   -4.5988708 
H    -0.2647244    2.6680203   -4.3872939 
H     0.6738730    3.3084547   -5.6451720 
N     2.9097234    0.6092157   -2.9801393 
C     3.9925366    0.9476257   -2.0380099 
H     2.8989936   -0.2346817   -3.5945244 
C     4.7526876    2.1842858   -2.4946488 
O     4.8790545    3.2628528   -1.6299732 
O     5.2689516    2.3000646   -3.7851275 
H     5.1644384    1.4397183   -4.3044781 
C     4.9399226   -0.2587261   -1.8665920 
H     3.5522498    1.2032970   -1.0448335 
C     4.2495703   -1.4133231   -1.1751823 
H     5.8304471    0.0376295   -1.2670710 
H     5.3239404   -0.5853014   -2.8583471 
C     3.9802226   -1.5192734    0.1355076 
C     4.2628698   -0.6667498    1.1539807 
C     3.8719497   -1.0114172    2.4146102 
C     3.2128011   -2.1894062    2.6356004 
C     2.9408133   -3.0299433    1.5969228 
C     3.3381206   -2.6666934    0.3593579 
H     4.7852713    0.2694256    0.9793342 
H     4.0838213   -0.3448960    3.2474009 
H     2.9024579   -2.4563456    3.6427732 
H     2.4171858   -3.9667983    1.7539488 
N     3.1525905   -3.3895741   -0.8495179 
C     3.7687978   -2.5052476   -1.7951771 
H     2.6947237   -4.3170477   -1.0035080 
H     3.8283442   -2.6938483   -2.8641998 
