48
Energy =
C     0.5920603   -4.9491177    1.2598504 
C     1.1429135   -3.7344340    1.5096148 
C    -0.1997353   -5.1294946    0.1691148 
C    -0.4361409   -4.0909820   -0.6642218 
C     0.1116527   -2.8738849   -0.4194104 
C     0.9037837   -2.6877204    0.6719761 
H     1.7804383   -3.6091870    2.3810472 
H    -1.0687562   -4.2482361   -1.5308716 
H    -0.0865497   -2.0529252   -1.1037533 
H     0.7894545   -5.7762179    1.9330692 
C     1.5366678   -1.3377017    0.9278628 
C     2.7515895   -1.0858781    0.0061094 
H     1.8486673   -1.2371694    1.9923001 
H     0.7679909   -0.5488310    0.7654873 
C     3.1812575    0.3684194    0.0686682 
O    -0.7791429   -6.3693471   -0.1197502 
H    -0.5622539   -7.0926535    0.5572954 
O     3.6199029    0.9046486    1.2752123 
N     3.8705519   -1.9750208    0.3604886 
H     2.4553358   -1.2809331   -1.0499216 
H     4.1304426   -1.8372439    1.3674530 
H     3.5864883   -2.9746474    0.2363148 
N     2.8303233    1.2623919   -0.9933384 
C     3.8948464    2.1476636   -1.5009426 
H     1.8653604    1.2411196   -1.3965484 
C     3.3259554    3.4206347   -2.1204096 
O     2.0568134    3.4139405   -2.6883284 
O     4.0936724    4.5795017   -2.2292973 
H     4.9960671    4.4863170   -1.7873901 
C     4.8003645    1.3778639   -2.4935103 
H     4.5190392    2.4952884   -0.6443141 
C     4.0212727    0.6344756   -3.5652887 
H     5.4343463    0.6752317   -1.9139716 
H     5.5076599    2.0804450   -2.9884832 
C     3.8931144   -0.6984266   -3.7009318 
C     4.4167797   -1.7105835   -2.9598224 
C     4.1111935   -2.9941740   -3.3031558 
C     3.3035442   -3.2488172   -4.3757282 
C     2.7977471   -2.2204631   -5.1129643 
C     3.1118038   -0.9586698   -4.7517341 
H     5.0556053   -1.5221620   -2.1032089 
H     4.5118572   -3.8186115   -2.7177963 
H     3.0651495   -4.2754966   -4.6427979 
H     2.1574135   -2.4047980   -5.9689712 
N     2.6864422    0.2405146   -5.3802995 
C     3.3216734    1.2251109   -4.5525926 
H     2.0774883    0.3702417   -6.2212373 
H     3.2323155    2.3018566   -4.6992122 
