48
Energy =
C    -0.7481745    6.0787518   -1.2692184 
C    -0.2767611    4.8256712   -1.4899218 
C    -1.6896858    6.2963019   -0.3124658 
C    -2.1514061    5.2568188    0.4184685 
C    -1.6824039    4.0022909    0.2035363 
C    -0.7410734    3.7776253   -0.7547120 
H     0.4782714    4.6706929   -2.2553184 
H    -2.8996746    5.4432655    1.1801265 
H    -2.0635438    3.1828743    0.8065100 
H    -0.3681130    6.9061628   -1.8585397 
C    -0.2029575    2.3798516   -0.9866514 
C     1.1115458    2.0964231   -0.2162306 
H    -0.0416792    2.2237387   -2.0759062 
H    -0.9682470    1.6275712   -0.6927185 
C     2.2631178    2.9729798   -0.6928362 
O    -2.1998537    7.5748714   -0.0612499 
H    -1.7879441    8.3019389   -0.6362889 
O     2.7938085    3.9739058    0.1132839 
N     0.9013429    2.1915476    1.2379517 
H     1.4273346    1.0544454   -0.4407275 
H     0.7530755    3.1938400    1.5089488 
H     0.0436667    1.6616580    1.5168122 
N     2.8597357    2.7447892   -1.9750134 
C     4.2660230    2.2958145   -1.9824982 
H     2.2841167    2.8315378   -2.8432664 
C     5.1081078    3.0678652   -2.9966194 
O     6.2788115    2.5035705   -3.4855496 
O     4.8179549    4.3845914   -3.3524044 
H     4.0699413    4.7670277   -2.7916142 
C     4.3170293    0.7587793   -2.1775053 
H     4.7573732    2.5375877   -1.0089746 
C     3.6461813    0.2849013   -3.4552932 
H     3.8124453    0.2752691   -1.3128644 
H     5.3719529    0.4104899   -2.1401114 
C     4.2349584   -0.0603516   -4.6157713 
C     5.5497109   -0.1018007   -4.9564548 
C     5.8836140   -0.5024154   -6.2169991 
C     4.9115211   -0.8614908   -7.1079996 
C     3.5993539   -0.8240605   -6.7433796 
C     3.2936944   -0.4197489   -5.4926950 
H     6.3296512    0.1737687   -4.2550727 
H     6.9293636   -0.5338199   -6.5146059 
H     5.1858514   -1.1789810   -8.1110776 
H     2.8156538   -1.1107619   -7.4365321 
N     1.9989146   -0.3291997   -4.9180131 
C     2.3171540    0.1268674   -3.5984884 
H     1.0689122   -0.5427095   -5.3469679 
H     1.5793597    0.3108643   -2.8233917 
