48
Energy =
C     1.2065065   -3.5122569    2.6293695 
C     0.6535844   -2.4827996    1.9395520 
C     2.1081276   -4.3324632    2.0266942 
C     2.4526281   -4.1141065    0.7372535 
C     1.9010722   -3.0876015    0.0419134 
C     0.9954528   -2.2647344    0.6393009 
H    -0.0633638   -1.8333752    2.4341715 
H     3.1803490   -4.7685502    0.2702091 
H     2.2023851   -2.9220465   -0.9887220 
H     0.9268470   -3.6775012    3.6640428 
C     0.3812910   -1.1122342   -0.1274578 
C     0.9961926    0.2570318    0.2541609 
H    -0.7116163   -1.0985882    0.0791318 
H     0.4802576   -1.2770072   -1.2220692 
C     2.4561603    0.3897820   -0.1827530 
O     2.6917437   -5.4060200    2.7076156 
H     2.4014285   -5.4890916    3.6755668 
O     3.4028434   -0.4624434    0.3773437 
N     0.1478607    1.3341060   -0.2900426 
H     1.0268436    0.3546033    1.3649744 
H    -0.0325908    1.1782023   -1.3105521 
H    -0.7822489    1.3285754    0.1930499 
N     2.9154284    1.5322197   -0.9266023 
C     4.2116255    1.4116219   -1.6285561 
H     2.2910538    2.3653714   -1.0038455 
C     4.7971814    2.7652225   -2.0200859 
O     6.1564564    2.9832313   -1.8367538 
O     4.0389122    3.7795140   -2.6075823 
H     3.1039250    3.4751949   -2.8280909 
C     4.1032230    0.4349592   -2.8247124 
H     4.9662854    0.9949847   -0.9179511 
C     3.1218358    0.8869077   -3.8832914 
H     3.7988472   -0.5676275   -2.4485650 
H     5.1080949    0.2861423   -3.2773791 
C     3.3859831    1.6335274   -4.9679327 
C     4.5590828    2.1685989   -5.3943527 
C     4.5551332    2.9115874   -6.5381315 
C     3.3927905    3.1061521   -7.2318177 
C     2.2263776    2.5612972   -6.7834247 
C     2.2561789    1.8308304   -5.6489883 
H     5.4814286    2.0304837   -4.8374094 
H     5.4802496    3.3581165   -6.8945944 
H     3.3976616    3.7028771   -8.1402662 
H     1.2946117    2.7109732   -7.3177236 
N     1.1597113    1.1955524   -5.0077723 
C     1.8078016    0.6090591   -3.8724739 
H     0.1537642    1.1692593   -5.2907644 
H     1.3042966    0.0172183   -3.1152439 
