48
Energy =
C     0.2219910    2.3002009   -4.9760103 
C     0.4068173    1.1731499   -4.2433606 
C    -0.9015415    3.0474636   -4.8086068 
C    -1.8322936    2.6603137   -3.9073837 
C    -1.6508717    1.5352431   -3.1702255 
C    -0.5273587    0.7833678   -3.3335746 
H     1.3090445    0.5884222   -4.3919538 
H    -2.7232902    3.2651404   -3.7830085 
H    -2.4090778    1.2448464   -2.4488794 
H     0.9770811    2.6013155   -5.6947290 
C    -0.3119248   -0.4640588   -2.5005668 
C     0.5242310   -0.2105199   -1.2201013 
H     0.1853149   -1.2404850   -3.1240382 
H    -1.2948215   -0.9008397   -2.2161672 
C     1.9621557    0.1880006   -1.5349744 
O    -1.1248677    4.2137471   -5.5485140 
H    -0.3709137    4.4400694   -6.1881524 
O     2.3902330    1.4985206   -1.3322748 
N    -0.1441294    0.7607069   -0.3370249 
H     0.6052375   -1.1713262   -0.6631668 
H    -0.1238725    1.7136357   -0.7757819 
H    -1.1482721    0.4981538   -0.2060215 
N     2.8772302   -0.7937359   -2.0627384 
C     4.2001823   -0.3346102   -2.5372160 
H     2.6007888   -1.8021303   -2.0721958 
C     4.1422960    0.1395350   -3.9886735 
O     4.6843261    1.3722264   -4.3309135 
O     3.6009462   -0.6570900   -5.0011740 
H     3.2329391   -1.5192323   -4.6280882 
C     5.2165386   -1.4794411   -2.3429092 
H     4.5469185    0.5397394   -1.9366814 
C     6.6268641   -1.0326917   -2.6584519 
H     4.9445745   -2.3474707   -2.9836956 
H     5.1717218   -1.8392015   -1.2909618 
C     7.4581512   -0.3611906   -1.8464279 
C     7.2772540    0.0544946   -0.5665335 
C     8.2881989    0.7399249    0.0406616 
C     9.4496151    0.9991589   -0.6336182 
C     9.6064928    0.5755051   -1.9201600 
C     8.5930520   -0.1030893   -2.4979549 
H     6.3522781   -0.1429193   -0.0328090 
H     8.1675817    1.0864899    1.0642861 
H    10.2488320    1.5501195   -0.1441858 
H    10.5176802    0.7795416   -2.4720105 
N     8.5449105   -0.6118513   -3.8237062 
C     7.2324929   -1.1909720   -3.8483814 
H     9.2744467   -0.5780515   -4.5724071 
H     6.7770174   -1.6558866   -4.7218367 
