48
Energy =
C     0.5109754    3.2188136   -4.8979927 
C     0.4464082    2.6273910   -3.6786635 
C    -0.4939352    3.0431161   -5.7966699 
C    -1.5552566    2.2709315   -5.4701468 
C    -1.6248520    1.6751486   -4.2526608 
C    -0.6274847    1.8568625   -3.3442775 
H     1.2679692    2.7652544   -2.9789531 
H    -2.3461607    2.1320073   -6.1991643 
H    -2.4809914    1.0495269   -4.0143851 
H     1.3718364    3.8276676   -5.1535489 
C    -0.6919815    1.1703764   -1.9949621 
C    -0.0528307   -0.2373787   -2.0338028 
H    -1.7543078    1.0763332   -1.6787631 
H    -0.2059588    1.8019728   -1.2212120 
C     1.4029596   -0.2064600   -2.4721631 
O    -0.4612464    3.6428552   -7.0597978 
H     0.3752705    4.1892414   -7.2346847 
O     1.6957312   -0.6520367   -3.7538649 
N    -0.2037264   -0.8961083   -0.7257323 
H    -0.5812880   -0.8462620   -2.8074696 
H     0.1820206   -0.2927502    0.0382569 
H    -1.2207156   -1.0450082   -0.5231432 
N     2.3935510    0.4533516   -1.6530144 
C     3.8757156    0.3592263   -1.7635751 
H     2.0146999    1.1254200   -0.9497558 
C     4.4894294    1.7508716   -1.6121782 
O     3.7724379    2.8737555   -2.0133007 
O     5.7825994    1.9255025   -1.1180123 
H     6.2232796    1.0490696   -0.8796427 
C     4.4361251   -0.3258952   -3.0456220 
H     4.2317632   -0.2126288   -0.8782839 
C     4.6397853   -1.8281664   -2.8863351 
H     5.4166479    0.1317670   -3.2839710 
H     3.8474770   -0.0879482   -3.9517542 
C     5.7854450   -2.5134827   -3.0832780 
C     7.0196179   -2.0783797   -3.4602449 
C     8.0227751   -2.9936913   -3.5860142 
C     7.7870686   -4.3162061   -3.3380991 
C     6.5460212   -4.7327890   -2.9629579 
C     5.5690922   -3.8097938   -2.8444950 
H     7.2272407   -1.0340330   -3.6647118 
H     9.0162941   -2.6693310   -3.8869731 
H     8.5922139   -5.0392997   -3.4419109 
H     6.3416001   -5.7794039   -2.7638791 
N     4.2221221   -4.0416295   -2.4696844 
C     3.6884164   -2.7125090   -2.5251805 
H     3.7469864   -4.9378126   -2.2145767 
H     2.6556908   -2.4724949   -2.2975651 
