48
 energy: -9.205741258224 gnorm: 0.000993026682 xtb: 6.6.0 (2ccbbd7)
C           -3.32253116455817        4.06170474195800        1.08758140011666
C           -2.03824283674436        3.68079736085820        0.77901856512498
C           -4.12688301284417        3.25658806993819        1.89444013031322
C           -3.59294939387279        2.06226060558712        2.37694493012847
C           -2.30823412721418        1.68814485955699        2.06381052515803
C           -1.51028587566348        2.49296173459709        1.26315446946841
H           -1.42741075351458        4.30620880603486        0.15076608232719
H           -4.21313335805578        1.44228109803595        2.99928592281641
H           -1.91094747146826        0.76087361343306        2.43939834008204
H           -3.72123521565162        4.98451559146768        0.70606756022426
C           -0.12722243177063        2.06823921436775        0.88030433592346
C           -0.03447571943996        1.57772457763976       -0.56602975295828
H            0.21619453061887        1.26836826115865        1.54308912378894
H            0.56844973270198        2.89934795365915        1.03536980070993
C            1.39081298693428        1.22361189816578       -0.90414177756774
O           -5.42289452499721        3.60702063984558        2.22049493435267
H           -5.65092157787314        4.47017240464697        1.81311432888226
O            1.86266129231233        0.21168788538588       -0.43135062606606
N           -0.87777845371359        0.41903500249664       -0.81174623694053
H           -0.36811639885748        2.37835927514359       -1.24344042571534
H           -0.43935773366593       -0.38704747429321       -0.38590201054934
H           -1.78879039067064        0.54375486870124       -0.38845717998156
N            2.09644880512419        2.07368930933077       -1.72351763927431
C            3.51412082922245        1.86954709292436       -1.97165323482236
H            1.74140534251158        3.00421427998646       -1.95422709132524
C            4.04519768095238        2.93565417616153       -2.90957711316269
O            4.88435787353804        3.68351281108302       -2.45295112299969
O            3.58617537500708        2.99626038810489       -4.18154374145522
H            2.72187227572472        2.38272875725892       -4.54270089510332
C            3.81063944670606        0.47543814643073       -2.52189488210685
H            4.01781050492947        1.99773688736773       -1.00105166416273
C            3.23332650497359        0.31172817670529       -3.87346956634175
H            3.38747996438170       -0.27964603618957       -1.85074951831917
H            4.89206287333280        0.30980713732913       -2.56374983186658
C            3.50377825112678       -0.65003018933294       -4.82583031661127
C            4.34732089593923       -1.78929947675082       -4.79549779284400
C            4.37924359272095       -2.61428016746191       -5.88628925442746
C            3.59686215491144       -2.35518109525701       -7.02191574074567
C            2.77252146090545       -1.25282753541188       -7.09140272356878
C            2.72373777280647       -0.37958665205232       -6.01026826739275
H            4.93885449725993       -1.99266600792666       -3.92074558857554
H            5.01462614132449       -3.48418396024260       -5.87362766647314
H            3.64477629263174       -3.03176521516725       -7.85895129786775
H            2.17924166249867       -1.05031922628310       -7.96492136797212
N            2.00004911891108        0.78287490085375       -5.82051035724406
C            2.24209793237666        1.24557115880569       -4.46553066060840
H            1.06898434524451        0.94917329668198       -6.21155212547756
H            1.94830238618763        2.41539852040301       -4.19480648410629
