48
Energy =
C     3.9565881   -2.8184088   -0.4788712 
C     2.8038158   -2.2511544   -0.0474844 
C     5.1342086   -2.5301929    0.1381825 
C     5.1472918   -1.6713396    1.1850955 
C     3.9960705   -1.1039498    1.6217075 
C     2.8137596   -1.3902351    1.0085110 
H     1.8744048   -2.4925603   -0.5572809 
H     6.0876281   -1.4408246    1.6752403 
H     4.0285065   -0.4184842    2.4645411 
H     3.9333550   -3.4994662   -1.3236884 
C     1.5283552   -0.7438562    1.4884663 
C     1.4273004    0.7424268    1.0672646 
H     1.4883413   -0.8142023    2.5978250 
H     0.6412444   -1.3004661    1.1097673 
C     1.3874016    0.9230204   -0.4421040 
O     6.3411992   -3.0980364   -0.2876950 
H     6.2350426   -3.7724397   -1.0380356 
O     0.9189832   -0.0933139   -1.2719939 
N     0.2511900    1.3702087    1.6843352 
H     2.3328515    1.2717498    1.4366008 
H    -0.6122505    0.8371255    1.4226326 
H     0.3436811    1.3318427    2.7262076 
N     1.6875243    2.1943790   -1.0324706 
C     3.0981061    2.6255640   -1.0996361 
H     0.9048774    2.7583718   -1.4367128 
C     3.2480493    3.8060472   -2.0435216 
O     3.5764881    5.0690661   -1.5606319 
O     3.0780554    3.6077181   -3.4184343 
H     2.8286924    2.4885911   -3.6137302 
C     4.0419640    1.4825899   -1.5524625 
H     3.4140585    2.9517321   -0.0848154 
C     3.7046408    0.8586187   -2.9070404 
H     4.0431165    0.6863812   -0.7788677 
H     5.0826150    1.8756841   -1.5943792 
C     4.3645488   -0.1871956   -3.4087667 
C     5.4540598   -0.8287561   -2.9083657 
C     5.9557737   -1.8932921   -3.5932434 
C     5.3658526   -2.3017451   -4.7541424 
C     4.2743436   -1.6441461   -5.2332356 
C     3.7989250   -0.5860353   -4.5356105 
H     5.9285412   -0.5107161   -1.9844138 
H     6.8276260   -2.4182958   -3.2119720 
H     5.7665873   -3.1529137   -5.2967994 
H     3.7950005   -1.9629269   -6.1535906 
N     2.6675712    0.1999655   -4.8755487 
C     2.5504979    1.2518791   -3.8491849 
H     2.0641148    0.0619951   -5.7202693 
H     2.4415922    2.0095289   -4.6527741 
