48
Energy =
C    -1.6694234   -1.7612226   -0.9877113 
C    -1.1892863   -0.7353880   -0.2408746 
C    -1.3472471   -1.8597181   -2.3062129 
C    -0.5394451   -0.9285562   -2.8664136 
C    -0.0671503    0.1046711   -2.1253658 
C    -0.3857834    0.2061245   -0.8044093 
H    -1.4406371   -0.6746593    0.8129225 
H    -0.2558677   -1.0189542   -3.9101821 
H     0.5958673    0.8338749   -2.5961128 
H    -2.3073193   -2.5052293   -0.5268918 
C     0.1764539    1.3332990    0.0395619 
C     1.2770705    0.8487784    1.0209764 
H    -0.6482729    1.8191273    0.5991084 
H     0.6212483    2.1189550   -0.6216276 
C     2.4054776    0.1290062    0.2910804 
O    -1.8434600   -2.9042370   -3.0992759 
H    -2.3599600   -3.6002988   -2.5785422 
O     2.7110758   -1.1872408    0.6516933 
N     1.7888840    1.9982536    1.7923095 
H     0.8535705    0.1028195    1.7264419 
H     2.3487219    2.6076026    1.1379512 
H     0.9990860    2.5874326    2.1380238 
N     2.8611584    0.6814907   -0.9425868 
C     4.2686633    1.1014039   -0.9596360 
H     2.6850304    0.0422474   -1.7436407 
C     4.3700035    2.3972903   -1.7272890 
O     4.3518523    3.5986101   -1.0211925 
O     4.3514974    2.4450247   -3.1073805 
H     4.5880547    1.3695847   -3.5422619 
C     5.1946298   -0.0544369   -1.4586716 
H     4.6131236    1.4313453    0.0342167 
C     4.7466353   -0.6726022   -2.7464687 
H     5.3079204   -0.8168698   -0.6808006 
H     6.2012186    0.3728135   -1.6598992 
C     4.2095583   -1.8852036   -2.9387255 
C     3.9008737   -2.8553758   -2.0382964 
C     3.3191013   -4.0064519   -2.4870198 
C     3.0577776   -4.1667167   -3.8186243 
C     3.3790114   -3.1752473   -4.6989263 
C     3.9559529   -2.0450375   -4.2216484 
H     4.0947321   -2.7093584   -0.9848894 
H     3.0562596   -4.7841478   -1.7785999 
H     2.5871669   -5.0758532   -4.1763694 
H     3.1761767   -3.2699229   -5.7575173 
N     4.3399499   -0.9113108   -4.9838482 
C     4.8572375    0.1151926   -4.0393479 
H     4.2609014   -0.8103278   -6.0184880 
H     4.4656389    0.8481282   -4.7713830 
