48
Energy =
C    -2.9188713    1.1835844    1.9673198 
C    -1.7772016    1.3899737    1.2633783 
C    -3.1899099   -0.0442876    2.4850383 
C    -2.3151572   -1.0579125    2.2939699 
C    -1.1719071   -0.8572745    1.5905820 
C    -0.8942804    0.3711548    1.0737171 
H    -1.5744311    2.3759906    0.8524099 
H    -2.5436503   -2.0324522    2.7110323 
H    -0.4849611   -1.6860539    1.4447894 
H    -3.6144564    2.0028110    2.1134635 
C     0.3675319    0.5990623    0.2713163 
C     0.0951883    0.5858361   -1.2522689 
H     1.1386023   -0.1570095    0.5359816 
H     0.7984961    1.5851550    0.5608075 
C     1.3043571    1.0670906   -2.0368054 
O    -4.3580147   -0.2916629    3.2136899 
H    -4.9578160    0.5197281    3.3154669 
O     1.2286285    2.2797076   -2.7159233 
N    -0.3295055   -0.7510313   -1.7013747 
H    -0.7150935    1.3190810   -1.4794721 
H     0.3189219   -1.4832588   -1.3292234 
H    -1.2830852   -0.9565804   -1.3201135 
N     2.5142910    0.2826973   -2.0820011 
C     3.4814730    0.5087915   -3.1740893 
H     2.6846301   -0.4442513   -1.3531164 
C     4.1581872    1.8809115   -3.0682439 
O     4.0831290    2.7955284   -4.1128160 
O     4.9241615    2.2142308   -1.9482508 
H     4.8496427    1.5132435   -1.2258183 
C     2.8065884    0.2213374   -4.5389590 
H     4.3061089   -0.2246834   -3.0416125 
C     3.8118197    0.0594648   -5.6618856 
H     2.0738561    1.0220278   -4.7741224 
H     2.2181924   -0.7192347   -4.4606511 
C     4.0195213    0.8842262   -6.7045149 
C     3.4146156    2.0566159   -7.0312760 
C     3.8158608    2.7012275   -8.1639528 
C     4.8014070    2.1712241   -8.9487795 
C     5.3932730    0.9929344   -8.6050138 
C     4.9814355    0.3745465   -7.4781945 
H     2.6375027    2.4913031   -6.4101364 
H     3.3519872    3.6453527   -8.4395721 
H     5.1163519    2.6938131   -9.8485417 
H     6.1770755    0.5597923   -9.2170374 
N     5.4616967   -0.8555028   -6.9536439 
C     4.6491295   -0.9868500   -5.7791445 
H     6.2034002   -1.4878786   -7.3344084 
H     4.6967697   -1.8230314   -5.0838276 
