48
Energy =
C    -0.6675993    5.7642435   -0.5026492 
C    -0.2203820    4.5762609   -0.9818719 
C    -1.5720686    5.7951326    0.5121747 
C    -2.0212974    4.6353466    1.0420033 
C    -1.5762904    3.4448767    0.5684457 
C    -0.6720765    3.4066155   -0.4496402 
H     0.5052853    4.5714610   -1.7904254 
H    -2.7400207    4.6728999    1.8526626 
H    -1.9463093    2.5252139    1.0128300 
H    -0.2974845    6.6890442   -0.9321895 
C    -0.1600740    2.0776207   -0.9701549 
C     1.1712473    1.6370721   -0.3107125 
H    -0.0305882    2.1367056   -2.0735516 
H    -0.9270801    1.2878422   -0.8088837 
C     2.3186829    2.5906414   -0.6241228 
O    -2.0567045    7.0019328    1.0276945 
H    -1.6564392    7.8258772    0.5915439 
O     2.8927876    3.3782359    0.3686857 
N     0.9975196    1.4258278    1.1362191 
H     1.4722408    0.6644237   -0.7549921 
H     0.8650830    2.3482442    1.6171849 
H     0.1459362    0.8470575    1.3209773 
N     2.8469647    2.6688171   -1.9537764 
C     4.2683327    2.3210821   -2.1306448 
H     2.2221586    2.9157027   -2.7549496 
C     4.9434781    3.2164226   -3.1652336 
O     4.1996070    3.7698003   -4.2012638 
O     6.3253906    3.4176118   -3.1572710 
H     6.7731865    2.9955694   -2.3574554 
C     4.3950293    0.8236506   -2.4888448 
H     4.8204592    2.5079879   -1.1792885 
C     3.6989054    0.4676497   -3.7888212 
H     3.9611150    0.2172938   -1.6634340 
H     5.4679471    0.5379748   -2.5459254 
C     4.2196615    0.5091191   -5.0276351 
C     5.4681452    0.8498564   -5.4408101 
C     5.7429710    0.8117534   -6.7762162 
C     4.7791113    0.4344245   -7.6694865 
C     3.5335028    0.0946275   -7.2327447 
C     3.2851693    0.1423392   -5.9070899 
H     6.2349866    1.1596872   -4.7377410 
H     6.7318300    1.0914293   -7.1320171 
H     5.0049158    0.4112227   -8.7326596 
H     2.7563188   -0.2029923   -7.9284251 
N     2.0627834   -0.1668119   -5.2530307 
C     2.4161436    0.0735100   -3.8853839 
H     1.1560675   -0.4870255   -5.6646674 
H     1.7333588   -0.0442884   -3.0499430 
