48
 energy: -9.359600827967 gnorm: 0.000777186177 xtb: 6.6.0 (2ccbbd7)
C            4.64554783342112        4.39055941916792        4.24001496865502
C            4.51985676865819        3.47560550683253        3.22213277860716
C            4.36277820778974        5.73915076649078        4.02084249609145
C            3.95418313784987        6.12961995978004        2.74588288665954
C            3.82936207178662        5.20695349511606        1.73543604929029
C            4.09997222239309        3.86513304634457        1.95856758854842
H            4.74597565481302        2.44100037054177        3.40590739224790
H            3.74160745859069        7.17001686479000        2.57527338465678
H            3.52376285508305        5.51990098043382        0.75161897300645
H            4.96512102088445        4.07517723612334        5.21709419948087
C            3.97631685356452        2.89370442685810        0.82751117371332
C            3.56484553898742        1.46461406300221        1.22695006980141
H            4.91532792252777        2.87962072675329        0.26994139436211
H            3.12942850362052        3.33061316672430        0.07589813224903
C            2.58275865628586        0.85776861796944        0.24542812814084
O            4.47898769719901        6.68454822197659        5.02160520022246
H            4.76516785204206        6.25771514340026        5.85769553871821
O            1.56412353564788        0.36412875793727        0.68930683214498
N            4.70138216661581        0.57454958153550        1.46340722954363
H            3.01519229801294        1.52629501209645        2.18086551762281
H            5.01814249185990        0.14136357475868        0.60650089476942
H            5.48632958385626        1.07452883148143        1.86227948649059
N            2.82888800158781        0.88876921272632       -1.10874660858295
C            4.05357307054376        1.38666927882775       -1.74267456183921
H            2.12070694408011        0.53474281052951       -1.74761082487898
C            4.01733590375456        2.88771108589360       -1.91369463674069
O            4.71459539493238        3.41492573534722       -2.75152019237405
O            3.15968298452001        3.62495316235813       -1.00685443398056
H            2.31297954997194        3.06096041367661       -0.62290099844164
C            4.32910383137751        0.66767324450600       -3.06995584639967
H            4.88793291664088        1.15167615380107       -1.07169568934650
C            5.78681891825797        0.60303724196423       -3.37051478497552
H            3.79787195294083        1.17853091623145       -3.87884392436310
H            3.92687152584111       -0.34979579416813       -3.02986624562931
C            6.69951794902719       -0.34650291932312       -2.82496485647714
C            6.52741991753365       -1.45116597986019       -1.97332561350001
C            7.63249004457345       -2.16111088629354       -1.59359969998201
C            8.91579350304727       -1.80028851708037       -2.03673193208982
C            9.10601881145472       -0.72527737933878       -2.86167088698100
C            7.98745145711806        0.01597224147549       -3.26316291433496
H            5.54205596822236       -1.72301731030892       -1.63801309857376
H            7.51911807875564       -3.01225087699658       -0.94282956762821
H            9.76535705248693       -2.38098217116334       -1.71750568242988
H           10.08574076029106       -0.43898836659810       -3.19970174412539
N            7.85549827018735        1.15376565789458       -4.04078699037582
C            6.52998394633800        1.51037235309103       -4.08413797571231
H            8.63388178113351        1.67285154363688       -4.45105586227884
H            6.13965905673963        2.40168075017948       -4.55082541842429
