48
 energy: -8.860276311225 gnorm: 0.000828780830 xtb: 6.6.0 (2ccbbd7)
C            6.91587933738639        1.02397822007749        2.36256964539643
C            5.56913514882197        1.37842736933663        2.31130365367567
C            7.66831742735194        0.81552817670511        1.18473760048873
C            7.08026954464074        1.01929775056630       -0.03304351248859
C            5.66642414035190        1.50176987119733       -0.18646847621980
C            4.91971708675508        1.59326189115413        1.13641568537126
H            5.01314758721493        1.44598847027125        3.23102008512971
H            7.69224542585988        0.86055905396864       -0.90308786205854
H            5.51673042719588        1.40107428764185       -1.51325768491355
H            7.39118754478400        0.86364212048571        3.31309248474947
C            3.43596721443942        1.74997181839896        1.11153431542376
C            2.67905821138426        0.45052417467693        0.70928321054250
H            3.16817691619114        2.55499258500241        0.41823419077369
H            3.10180509743152        2.09636253819276        2.09571915911653
C            2.09159712412378        0.52819840498131       -0.68517955148233
O            8.98532115727451        0.39794361682574        1.24022154502878
H            9.27612728077882        0.31884225685418        2.17403768446654
O            1.00675876595891        0.01145806894997       -0.87184753916263
N            3.43801978357057       -0.79006842230924        0.92387982343249
H            1.79885249232934        0.35505405743110        1.37040907766490
H            3.75211938549359       -1.27821537183670        0.08133961819066
H            4.23877902504669       -0.63633812301032        1.52243239698443
N            2.74887892337066        1.19871155977632       -1.70308480324371
C            4.23440725106456        1.33262292397042       -1.86266182544733
H            2.25076819527971        1.36320170817866       -2.57286873962312
C            4.39732068917476        2.83942000383690       -2.21861275018825
O            3.83005176447745        3.27449036914668       -3.19401404025394
O            5.19129719453263        3.50736823034445       -1.36214743438688
H            5.55401790992385        2.71027076041465       -0.65006033261056
C            4.56204725253692        0.39502734264373       -3.07312904632409
H            4.69483029255601        0.80817046693947       -0.75232177902136
C            4.40623979732587       -1.02259583057583       -2.64923212054942
H            5.56590305367512        0.56348122022839       -3.47814461553344
H            3.87649226097423        0.61895723578837       -3.89475513158885
C            3.20688308106589       -1.79596651350427       -2.71656537231311
C            1.97052679171842       -1.59300812442565       -3.35410190453665
C            0.97833419059026       -2.51565394344603       -3.17108470641499
C            1.17873859845273       -3.64957748848135       -2.36785118294183
C            2.37264486548053       -3.86860271268422       -1.73776456857261
C            3.40017993660779       -2.93284469085816       -1.90891815471071
H            1.81039334232082       -0.71241183818908       -3.95019403897075
H            0.01880150547783       -2.36158999623390       -3.63650971005531
H            0.37193319440237       -4.35177789215996       -2.23717652346078
H            2.53020446866778       -4.72553766457747       -1.10769058269305
N            4.66886142415999       -2.84295031904006       -1.36532275379209
C            5.27513709243574       -1.70381864708631       -1.83119681656623
H            5.10078366289692       -3.56095250318478       -0.77941977751065
H            6.25128679347699       -1.36049504563650       -1.52785293716736
