48
Energy =
C    -0.1785744    5.7129632   -2.1432470 
C     0.2717104    4.4338734   -2.1983397 
C    -1.2058235    6.0410170   -1.3151691 
C    -1.7745923    5.0865910   -0.5454822 
C    -1.3278573    3.8070415   -0.5949352 
C    -0.3006478    3.4700999   -1.4243049 
H     1.0952679    4.1921237   -2.8637375 
H    -2.5907021    5.3617533    0.1132574 
H    -1.7950823    3.0566808    0.0367081 
H     0.2869937    6.4730919   -2.7619021 
C     0.2099124    2.0429708   -1.4705161 
C     1.4162423    1.7932487   -0.5334090 
H     0.4884085    1.7788691   -2.5143965 
H    -0.6067628    1.3375670   -1.2006362 
C     2.6552919    2.5733412   -0.9597775 
O    -1.6965050    7.3477432   -1.2365688 
H    -1.2037139    8.0090814   -1.8274873 
O     3.1990286    3.5590977   -0.1420408 
N     1.0536401    2.0374215    0.8731303 
H     1.6962371    0.7219015   -0.6210731 
H     0.8936434    3.0601118    1.0370692 
H     0.1746138    1.5246954    1.1164611 
N     3.3364070    2.2341225   -2.1764159 
C     4.6201737    1.5233915   -2.0476087 
H     2.9049070    2.4592791   -3.0998242 
C     5.7831290    2.4321623   -2.4493623 
O     6.3285367    2.3445968   -3.7271981 
O     6.3113853    3.3716213   -1.5636551 
H     5.7554586    3.4439741   -0.7214788 
C     4.5739854    0.2338142   -2.8979255 
H     4.8077802    1.2315891   -0.9878434 
C     3.4635357   -0.6932133   -2.4590290 
H     5.5462766   -0.3031537   -2.8290680 
H     4.4360592    0.4979833   -3.9711530 
C     3.4594875   -1.4912558   -1.3801484 
C     4.4227554   -1.6972359   -0.4461550 
C     4.1589465   -2.5604688    0.5764689 
C     2.9502092   -3.1962922    0.6494228 
C     1.9977267   -2.9729860   -0.3002409 
C     2.2834986   -2.1164252   -1.3030242 
H     5.3818181   -1.1911536   -0.5018832 
H     4.9127727   -2.7421683    1.3390023 
H     2.7469406   -3.8810796    1.4690099 
H     1.0329430   -3.4665768   -0.2549824 
N     1.4330870   -1.7339773   -2.3753578 
C     2.2738960   -0.8075370   -3.0752663 
H     0.4554604   -2.0402028   -2.5854832 
H     1.9792524   -0.2640500   -3.9698266 
