48
Energy =
C     0.9289831    4.2835036   -7.4113064 
C     1.5092764    3.7839748   -6.2906232 
C     0.8735946    3.5338340   -8.5445793 
C     1.4005320    2.2881156   -8.5482717 
C     1.9823438    1.7839622   -7.4308403 
C     2.0416674    2.5307225   -6.2946120 
H     1.5468770    4.3937132   -5.3909875 
H     1.3501669    1.6993350   -9.4576983 
H     2.3988116    0.7796893   -7.4529824 
H     0.5093791    5.2835331   -7.3993871 
C     2.6779497    1.9620282   -5.0459692 
C     1.7422381    0.9629068   -4.3205990 
H     2.9724958    2.7839207   -4.3589474 
H     3.6345418    1.4617507   -5.3271074 
C     2.5080779    0.0229476   -3.3943355 
O     0.2811989    4.0181398   -9.7155361 
H    -0.0840570    4.9607297   -9.6352513 
O     2.6920627   -1.2948752   -3.8061519 
N     0.6717461    1.6785863   -3.6070140 
H     1.2742291    0.2917088   -5.0790150 
H     1.0926387    2.3572356   -2.9286555 
H     0.0962299    2.2237947   -4.2896272 
N     2.7196054    0.3513813   -2.0059354 
C     4.1256006    0.6986890   -1.6814933 
H     2.4236865   -0.4884667   -1.4576043 
C     4.5618013    1.9905594   -2.3606534 
O     5.5034401    1.9673998   -3.3826308 
O     3.9963015    3.2142500   -2.0050067 
H     3.2800102    3.0934862   -1.3028867 
C     5.1116147   -0.4745016   -1.9375635 
H     4.1705944    0.9404441   -0.5964590 
C     4.8983102   -1.6221270   -0.9751766 
H     6.1599136   -0.1148372   -1.8339224 
H     5.0367778   -0.8320231   -2.9868207 
C     5.2877684   -1.6755163    0.3083597 
C     5.9684089   -0.7642018    1.0499261 
C     6.2431826   -1.0635210    2.3521314 
C     5.8385562   -2.2556289    2.8871170 
C     5.1570546   -3.1558034    2.1225340 
C     4.8978668   -2.8363773    0.8371446 
H     6.2919747    0.1819757    0.6259772 
H     6.7873659   -0.3505673    2.9673412 
H     6.0612946   -2.4873138    3.9260450 
H     4.8285942   -4.1060406    2.5304115 
N     4.2062158   -3.6240817   -0.1210181 
C     4.2497539   -2.7631325   -1.2673516 
H     3.7797639   -4.5742280   -0.0232887 
H     3.8111569   -3.0032194   -2.2338786 
