48
Energy =
C     3.3529261    3.8754167    4.8318025 
C     3.1529353    2.5924647    4.4365865 
C     4.1698356    4.6929133    4.1142944 
C     4.7821708    4.2192161    3.0052128 
C     4.5854324    2.9378610    2.6053648 
C     3.7705902    2.1154116    3.3212538 
H     2.4940159    1.9523931    5.0174274 
H     5.4318966    4.8786387    2.4407415 
H     5.0853722    2.5746934    1.7089024 
H     2.8567262    4.2461604    5.7219869 
C     3.5392805    0.6937020    2.8616083 
C     2.5413343    0.6201046    1.6823972 
H     3.1849072    0.0516978    3.6987966 
H     4.5194430    0.2635692    2.5498856 
C     2.5832880   -0.7512331    1.0323677 
O     4.3940768    6.0211197    4.4931597 
H     3.9075701    6.2945431    5.3396168 
O     2.3011902   -1.8890281    1.7808256 
N     1.1760427    0.9437032    2.1288982 
H     2.8476830    1.3498531    0.8958731 
H     0.8898220    0.2845705    2.8924866 
H     1.1510716    1.9145100    2.5187356 
N     2.7098344   -0.8730862   -0.3864798 
C     4.0818780   -0.9543891   -0.9224613 
H     1.8420430   -0.8997386   -0.9663365 
C     4.8441102    0.3501240   -0.7590973 
O     5.8546929    0.4651508    0.1891456 
O     4.5049518    1.4589500   -1.5428289 
H     3.6356826    1.1884734   -2.2497162 
C     4.0485064   -1.3939276   -2.4023851 
H     4.6433186   -1.7319331   -0.3561684 
C     3.3890427   -0.4169438   -3.3774666 
H     3.5141446   -2.3671330   -2.4592515 
H     5.0945790   -1.5660939   -2.7370672 
C     3.2437927   -0.6829124   -4.6808050 
C     3.7145763   -1.7425025   -5.3953326 
C     3.4252081   -1.8133454   -6.7249488 
C     2.6705370   -0.8415372   -7.3154086 
C     2.2022592    0.2025127   -6.5766289 
C     2.5094760    0.2548957   -5.2609342 
H     4.3111883   -2.5220159   -4.9298310 
H     3.7929501   -2.6488668   -7.3166930 
H     2.4366219   -0.9044366   -8.3755894 
H     1.5892956    0.9749270   -7.0288067 
N     2.0694210    1.2471943   -4.3421644 
C     2.6818644    0.9075260   -3.0325541 
H     1.4979251    2.0859741   -4.6196968 
H     3.0672634    1.9506317   -2.8626980 
