48
Energy =
C    -3.3668640    2.0655243    1.6305828 
C    -2.0306068    2.2696651    1.5094875 
C    -4.2083747    2.4327793    0.6272857 
C    -3.7056659    3.0026322   -0.4914305 
C    -2.3704569    3.2088512   -0.6180479 
C    -1.5242431    2.8458691    0.3844941 
H    -1.3703081    1.9653608    2.3173231 
H    -4.3864960    3.2908332   -1.2847243 
H    -1.9851210    3.6661896   -1.5258173 
H    -3.7602697    1.6061612    2.5309049 
C    -0.0339592    3.0584430    0.2343677 
C     0.6239250    1.9806975   -0.6646153 
H     0.4659339    3.0760752    1.2280653 
H     0.1317250    4.0709834   -0.2007610 
C     2.0731143    2.3266742   -0.9971853 
O    -5.5899691    2.2342063    0.7193019 
H    -5.8872582    1.8097569    1.5909263 
O     2.3992816    3.6624026   -1.1955352 
N     0.5200562    0.6529364   -0.0293398 
H     0.1059710    1.9604860   -1.6523910 
H     0.8756363    0.6957710    0.9555202 
H    -0.4846200    0.3578839    0.0124663 
N     2.9787658    1.2751364   -1.3982651 
C     4.3990497    1.4996193   -1.7783658 
H     2.5282986    0.3555868   -1.5946468 
C     4.8107092    2.9498600   -2.0848908 
O     4.7203744    3.4550836   -3.3764696 
O     5.3550007    3.7703917   -1.0939518 
H     5.1934258    3.3982036   -0.1702874 
C     4.8270399    0.5053790   -2.8992921 
H     5.0113663    1.2238350   -0.8924683 
C     3.8226765    0.3568305   -4.0334436 
H     5.0151181   -0.4890019   -2.4417823 
H     5.8083776    0.8154457   -3.3249704 
C     2.9089210   -0.6215374   -4.1824480 
C     2.6411223   -1.6977131   -3.3950627 
C     1.6499157   -2.5526346   -3.7772876 
C     0.9513155   -2.3288455   -4.9304458 
C     1.2407665   -1.2491822   -5.7096621 
C     2.2237485   -0.4159031   -5.3092912 
H     3.1913198   -1.8848653   -2.4785819 
H     1.4144949   -3.4175274   -3.1616651 
H     0.1633029   -3.0157894   -5.2287933 
H     0.6990704   -1.0596003   -6.6301671 
N     2.6822924    0.7476608   -5.9788914 
C     3.7209929    1.1843702   -5.0906952 
H     2.3564773    1.1666129   -6.8803577 
H     4.3556770    2.0485137   -5.2734518 
