48
Energy =
C     2.4259562    2.8748052    3.8054076 
C     2.5232170    1.5725871    3.4363557 
C     3.1920583    3.8176020    3.1942179 
C     4.0494344    3.4495582    2.2149552 
C     4.1527303    2.1484153    1.8450930 
C     3.3897129    1.1999131    2.4538227 
H     1.8999009    0.8311878    3.9285790 
H     4.6500736    4.2099436    1.7266700 
H     4.8485919    1.8771356    1.0576875 
H     1.7323106    3.1607806    4.5884575 
C     3.4795727   -0.2497942    2.0232578 
C     2.2563819   -0.6823118    1.1821604 
H     3.5426685   -0.8879308    2.9320452 
H     4.4184105   -0.4338724    1.4582043 
C     2.0587833    0.1795199   -0.0603128 
O     3.1204688    5.1668600    3.5566281 
H     2.4317382    5.3672594    4.2732066 
O     1.0787849    1.1634117   -0.0354254 
N     2.3594087   -2.1133518    0.8477661 
H     1.3341927   -0.5290981    1.7908754 
H     3.2726950   -2.3069614    0.3728472 
H     2.3405951   -2.6807256    1.7280738 
N     2.5327508   -0.2540153   -1.3403001 
C     3.9205053    0.0762997   -1.7088468 
H     1.8747596   -0.8044028   -1.9360905 
C     4.1120576    1.5737131   -1.9436662 
O     5.2620756    2.1893263   -1.4639930 
O     3.2126263    2.3305666   -2.6939578 
H     2.3651397    1.8152427   -2.8823808 
C     4.3135696   -0.7516309   -2.9505459 
H     4.5995961   -0.2043343   -0.8740550 
C     5.7957997   -0.6597120   -3.2441398 
H     3.7223177   -0.4257085   -3.8345983 
H     4.0530409   -1.8197267   -2.7758199 
C     6.4124638    0.2263394   -4.0439428 
C     5.8951444    1.2295781   -4.7992879 
C     6.7523408    2.0030036   -5.5251177 
C     8.0983612    1.7649589   -5.4877184 
C     8.5956645    0.7527153   -4.7218876 
C     7.7273980    0.0017121   -4.0120760 
H     4.8283441    1.4302495   -4.8242784 
H     6.3621901    2.8182386   -6.1297704 
H     8.7747908    2.3895437   -6.0655832 
H     9.6609076    0.5543354   -4.6762178 
N     8.0377169   -1.0846940   -3.1504827 
C     6.7312185   -1.4505467   -2.6891412 
H     8.9683982   -1.5025341   -2.9214498 
H     6.5326277   -2.2503057   -1.9798693 
