48
Energy =
C     4.7689611    3.0373965    2.9183064 
C     4.6153013    1.8608377    2.2611695 
C     4.2742741    3.1872278    4.1756174 
C     3.6236519    2.1581709    4.7647048 
C     3.4628026    0.9801264    4.1100203 
C     3.9635552    0.8216966    2.8540319 
H     5.0124044    1.7624958    1.2558219 
H     3.2272067    2.2934575    5.7651442 
H     2.9260338    0.1697776    4.5960464 
H     5.2847409    3.8589986    2.4325700 
C     3.7521430   -0.4809648    2.1101249 
C     2.3598040   -0.5382186    1.4399182 
H     3.8472605   -1.3249316    2.8286843 
H     4.5551256   -0.6376813    1.3597995 
C     2.1356719    0.5961101    0.4472349 
O     4.4215079    4.3839144    4.8846838 
H     4.8850575    5.1192632    4.3614129 
O     1.3252740    1.6583241    0.8227680 
N     2.1549362   -1.8583969    0.8174557 
H     1.5807852   -0.3885416    2.2259332 
H     2.9119932   -2.0463235    0.1157737 
H     2.2168772   -2.6075421    1.5457339 
N     2.3844708    0.4150017   -0.9502588 
C     3.7515702    0.6664245   -1.4409293 
H     1.5935884    0.0687606   -1.5350592 
C     4.0906405    2.1519296   -1.4983078 
O     5.4111542    2.5362420   -1.3021181 
O     3.1524626    3.1307834   -1.8176236 
H     2.2099591    2.7720195   -1.7648495 
C     3.9440359    0.0068267   -2.8208812 
H     4.4904010    0.2164529   -0.7450674 
C     3.8600710   -1.5006898   -2.7194740 
H     4.9487289    0.2736902   -3.2235562 
H     3.2040248    0.4101899   -3.5443023 
C     2.8178808   -2.2874659   -3.0398713 
C     1.6110386   -1.9687772   -3.5756433 
C     0.7127870   -2.9718098   -3.7952215 
C     1.0298107   -4.2640559   -3.4804564 
C     2.2472819   -4.5613678   -2.9447306 
C     3.1187490   -3.5521623   -2.7378505 
H     1.3535781   -0.9461532   -3.8286826 
H    -0.2608250   -2.7427417   -4.2220913 
H     0.3083266   -5.0581306   -3.6573017 
H     2.5147964   -5.5809259   -2.6880650 
N     4.4236398   -3.6470834   -2.1851686 
C     4.8329416   -2.2742598   -2.2065524 
H     4.9378163   -4.4921959   -1.8437695 
H     5.7928243   -1.9128917   -1.8408123 
