48
 energy: -9.291394913692 gnorm: 0.000566847851 xtb: 6.6.0 (2ccbbd7)
C           -3.33147060920650       -2.13436203921070       -1.17954922350904
C           -2.20657666629009       -1.62593039661655       -1.78499113102049
C           -3.32050519795161       -2.46631287636795        0.17581930026836
C           -2.14421971782925       -2.26295664572483        0.89665483879930
C           -1.02456802069256       -1.75286494915837        0.28497779519762
C           -1.03695812815541       -1.43233646415098       -1.06446173060441
H           -2.22456194465151       -1.37889799717961       -2.83266109844346
H           -2.13659770531435       -2.51593733890618        1.94175774378995
H           -0.12157230080697       -1.60037700134889        0.85099603315481
H           -4.23237785751182       -2.28408258590735       -1.74707040677056
C            0.18533129157070       -0.86514261697623       -1.71223065127912
C            0.34251365024567        0.64408404825511       -1.50956988350309
H            0.17706459833948       -1.07928933144288       -2.78486579546935
H            1.06857573759672       -1.37677251797581       -1.31730107034540
C            1.70642782344638        1.07436810866038       -1.98374800861026
O           -4.43072998374799       -2.98649455021339        0.81296231900777
H           -5.17545400335304       -3.06862190977588        0.17909911586059
O            1.86875420295618        1.22730932059613       -3.17581420196526
N           -0.65290624182772        1.41381094087838       -2.23570476501389
H            0.24181900667730        0.88309983927999       -0.44012637252347
H           -0.35902162279991        1.45688143657729       -3.20727585494255
H           -1.56015848231751        0.96700437703540       -2.18865400534095
N            2.69710548273233        1.23529431190773       -1.03975847379075
C            4.12698839210349        1.28857818010704       -1.36952046937197
H            2.49089167141648        1.05552384806254       -0.05597730460706
C            4.53931139165267        2.68549954590222       -1.78790487671771
O            5.52742589756749        3.16605535913312       -1.27752533671730
O            3.76368637148271        3.26612453211399       -2.72960375373132
H            3.03146921462830        2.64127626234263       -2.95806712922392
C            4.51561326936452        0.25341725176034       -2.42776628498714
H            4.68405245481983        1.07065972807265       -0.44722854430393
C            3.93796412962744       -1.10049107914873       -2.17353100007641
H            5.60480824419070        0.18918591636293       -2.51787344588807
H            4.15148781536249        0.60685900445264       -3.39794788187734
C            3.97933505544645       -1.85501485358816       -0.96217292242590
C            4.59354503596615       -1.64612161036110        0.28547033234979
C            4.39632838134652       -2.56503201228683        1.27867439338376
C            3.60145651254566       -3.70334316756330        1.07007213444712
C            3.00329394915805       -3.93583073376145       -0.13745757678796
C            3.19365362843814       -3.00693962949500       -1.16772123412296
H            5.21954686739008       -0.78689355979981        0.44290803908181
H            4.86022345118183       -2.41607125102907        2.23962296968529
H            3.46513454234480       -4.40649612164741        1.87495091256421
H            2.39449948429020       -4.80543031015776       -0.30838349163660
N            2.70941386110659       -2.95888355364773       -2.46244896101382
C            3.16217678348353       -1.80917279460217       -3.05858544129284
H            2.11143988071714       -3.66879115214220       -2.88889561787796
H            2.90504764099871       -1.49138264130775       -4.05654535704744
