48
Energy =
C    -3.7549641    1.9878293   -0.6774682 
C    -2.4880321    2.1771606   -1.1259705 
C    -4.5968267    1.1497511   -1.3396719 
C    -4.1638046    0.5057603   -2.4472756 
C    -2.8982131    0.6911865   -2.9001788 
C    -2.0532602    1.5326486   -2.2437637 
H    -1.8259504    2.8456923   -0.5823845 
H    -4.8433831   -0.1614984   -2.9659446 
H    -2.5672729    0.1612076   -3.7901905 
H    -4.0927567    2.5067173    0.2130354 
C    -0.6366068    1.7222834   -2.7377288 
C     0.2856602    0.5599939   -2.3046652 
H    -0.2233537    2.6936226   -2.3895080 
H    -0.6491189    1.7853499   -3.8515949 
C     1.6198002    0.6329878   -3.0239975 
O    -5.9076271    0.9315698   -0.9027969 
H    -6.1570924    1.4539994   -0.0703221 
O     1.7392257   -0.0357024   -4.2370923 
N     0.4555754    0.5318690   -0.8392690 
H    -0.1626758   -0.4054239   -2.6441348 
H     0.6086725    1.4955477   -0.4619039 
H    -0.4253514    0.1716581   -0.4002448 
N     2.6176286    1.5937001   -2.6236738 
C     4.0307974    1.4799010   -3.0498834 
H     2.3373340    2.3369700   -1.9486714 
C     4.3180900    2.3596140   -4.2660765 
O     3.3480482    2.5507623   -5.2406046 
O     5.5686064    2.9536786   -4.4536962 
H     6.2078324    2.7576335   -3.6977283 
C     4.4683202    0.0110248   -3.2758574 
H     4.6445820    1.8908032   -2.2177843 
C     5.9733980   -0.1340437   -3.2660873 
H     4.0697768   -0.3588824   -4.2493140 
H     4.0241073   -0.6428510   -2.4947333 
C     6.7582109   -0.2729648   -2.1865563 
C     6.4245862   -0.3525636   -0.8728319 
C     7.4273985   -0.4799304    0.0430336 
C     8.7328965   -0.5206268   -0.3628910 
C     9.0436646   -0.4329098   -1.6875943 
C     8.0336834   -0.3111489   -2.5742674 
H     5.3889839   -0.3145363   -0.5475612 
H     7.1877449   -0.5477969    1.1016154 
H     9.5265953   -0.6204157    0.3734243 
H    10.0740354   -0.4573176   -2.0260509 
N     8.1387314   -0.1845727   -3.9850449 
C     6.7585089   -0.0673218   -4.3562931 
H     8.9926012   -0.1782672   -4.5892137 
H     6.4041041    0.1034248   -5.3734550 
