48
Energy =
C     1.4680633    3.6844210   -5.6248479 
C     2.0411588    3.9016497   -4.4137730 
C     0.3343675    4.3474538   -5.9722525 
C    -0.2226520    5.2204749   -5.1034667 
C     0.3442023    5.4408654   -3.8900445 
C     1.4880792    4.7893016   -3.5369602 
H     2.9315106    3.3407346   -4.1466309 
H    -1.1316961    5.7387435   -5.3927889 
H    -0.1268477    6.1434422   -3.2065867 
H     1.9158931    2.9727813   -6.3113472 
C     2.1048656    5.0390317   -2.1717389 
C     1.6410650    4.0072942   -1.1125249 
H     1.8209471    6.0585130   -1.8303597 
H     3.2189179    5.0753643   -2.2294202 
C     2.2146983    2.6125609   -1.3563993 
O    -0.2794378    4.1492903   -7.2112604 
H     0.1891864    3.4720372   -7.8041554 
O     1.6720659    1.8251978   -2.3687745 
N     1.9656984    4.5035079    0.2365167 
H     0.5347886    3.8817508   -1.1801295 
H     2.9982042    4.6785186    0.3180694 
H     1.4747146    5.4097353    0.4220599 
N     3.1933220    2.0431050   -0.4703032 
C     4.5332160    1.9142869   -1.0909926 
H     2.8279743    1.1072999   -0.1855645 
C     5.0346273    3.2546885   -1.6233498 
O     4.8667218    3.5878287   -2.9608428 
O     5.4769159    4.2569645   -0.7676460 
H     5.5575811    3.9266731    0.1829624 
C     4.5619936    0.7823969   -2.1540398 
H     5.2414718    1.6356283   -0.2795784 
C     5.9697108    0.2786174   -2.3997094 
H     4.0978200    1.1300536   -3.0999612 
H     3.9471158   -0.0776420   -1.8127862 
C     6.7811473    0.5703005   -3.4313550 
C     6.5706633    1.3567144   -4.5185061 
C     7.5739093    1.4834709   -5.4335444 
C     8.7594510    0.8269735   -5.2546583 
C     8.9494136    0.0403552   -4.1581823 
C     7.9427127   -0.0672943   -3.2655345 
H     5.6355586    1.8856981   -4.6639661 
H     7.4305212    2.1161002   -6.3056615 
H     9.5548208    0.9362280   -5.9871657 
H     9.8843543   -0.4859111   -4.0000867 
N     7.9395729   -0.8320852   -2.0685713 
C     6.6272056   -0.5505030   -1.5687554 
H     8.6902263   -1.4381432   -1.6660956 
H     6.2263012   -0.9516982   -0.6416157 
