48
Energy =
C     2.8666763    4.8980003   -2.1391463 
C     1.8316987    4.0220489   -2.0688669 
C     3.0734992    5.7948468   -1.1392709 
C     2.2356716    5.8167014   -0.0798331 
C     1.2001295    4.9449408   -0.0043798 
C     0.9978894    4.0286643   -0.9940952 
H     1.6794519    3.3153636   -2.8799280 
H     2.4053744    6.5418412    0.7074009 
H     0.5346203    4.9909453    0.8528007 
H     3.5321520    4.8756095   -2.9962757 
C    -0.1658252    3.0573818   -0.9226820 
C     0.1828047    1.6565533   -0.3523853 
H    -0.6020166    2.9378620   -1.9398874 
H    -0.9799041    3.4952988   -0.3037790 
C     1.1296893    0.8494829   -1.2333650 
O     4.1320052    6.7082946   -1.1781072 
H     4.7545862    6.5719970   -1.9686524 
O     0.6206426   -0.3364694   -1.7515628 
N     0.6633941    1.7176196    1.0466089 
H    -0.7710026    1.0735903   -0.3769073 
H     0.7842208    2.6947208    1.3928474 
H    -0.0347516    1.2634141    1.6821679 
N     2.5534971    0.9946471   -1.0541806 
C     3.5011186    0.5936489   -2.1392475 
H     2.7907900    0.5575000   -0.1376778 
C     4.2596762    1.8362717   -2.6100227 
O     4.0251370    2.3686580   -3.8754903 
O     5.1855963    2.4766174   -1.7864654 
H     5.1975720    2.0777359   -0.8589006 
C     2.8862673   -0.1699869   -3.3536787 
H     4.3039842   -0.0475842   -1.7203666 
C     2.6262381   -1.6784761   -3.2827567 
H     3.5926776   -0.0581661   -4.2073103 
H     1.9613945    0.3447496   -3.6924196 
C     2.7013589   -2.5872808   -2.2739651 
C     3.0332219   -2.4612089   -0.9586098 
C     3.0244413   -3.5687074   -0.1634384 
C     2.6877211   -4.7854973   -0.6773680 
C     2.3552481   -4.9029472   -1.9898085 
C     2.3700400   -3.7940247   -2.7585269 
H     3.2936900   -1.5249920   -0.5112865 
H     3.2827039   -3.4805595    0.8891975 
H     2.6807638   -5.6630250   -0.0357497 
H     2.0813103   -5.8629350   -2.4142000 
N     2.0526356   -3.7313930   -4.1368580 
C     2.2366394   -2.3390059   -4.3923937 
H     1.7680182   -4.4985875   -4.7883400 
H     2.0800661   -1.8781291   -5.3654810 
