48
 energy: -9.208666091346 gnorm: 0.000601792124 xtb: 6.6.0 (2ccbbd7)
C            1.32804532509359       -2.39303778780920        0.78464415041883
C            0.77245239011458       -1.13901382441339        0.68397275822209
C            1.82430414184095       -3.04386077038534       -0.34551218866286
C            1.74073664474050       -2.38825912300677       -1.57220846954646
C            1.18206347742632       -1.13713776028264       -1.66308532374349
C            0.68846862463190       -0.49167442337717       -0.53959553863189
H            0.40566608812540       -0.64031888164336        1.56462655646597
H            2.13785688843652       -2.87827174437443       -2.44310981443707
H            1.14960905075655       -0.63934971652317       -2.61626619574291
H            1.39181459124139       -2.88258495226277        1.73983593015514
C            0.12638398975076        0.89483937496529       -0.63605140749495
C            1.04420235150422        1.97612136175553       -0.05141053707382
H           -0.84919986438814        0.92849786110238       -0.14118174890583
H           -0.06640067222570        1.13282798302512       -1.68623724287827
C            2.41327900552733        1.92413473089345       -0.69006435962599
O            2.38897669465144       -4.30308336175195       -0.28283678359005
H            2.39726651766468       -4.62134881427440        0.64536840394467
O            3.22737984582643        1.12926388600328       -0.26652733354393
N            0.45506713306513        3.30682500549002       -0.16756333297594
H            1.20282748716927        1.77329337728838        1.01941671716559
H            0.20124383377738        3.49369362185769       -1.12868976241503
H           -0.39861072589851        3.36733431088650        0.37326115666271
N            2.65955048978555        2.75664518020067       -1.75490675701109
C            3.92244872681100        2.74167282803832       -2.48183589236516
H            2.03628628402081        3.54171624858546       -1.96861570235516
C            3.77531015219600        3.49281181353705       -3.79258811110683
O            4.44872153527647        4.49384442493275       -3.91826619910352
O            2.94009961610666        3.01547490123464       -4.74758551636855
H            2.19784511442716        2.20480148087940       -4.53745989837936
C            4.42168716847921        1.32281261453334       -2.75276358752747
H            4.65187253045675        3.28365027103035       -1.86092687072327
C            3.44463395643228        0.58749177103001       -3.58320698819743
H            4.56379510992608        0.79251429256439       -1.80516537236057
H            5.39051152715406        1.35322402610737       -3.26150466703899
C            3.54849665247617       -0.66138604123477       -4.16203358572000
C            4.59052646437101       -1.62196550961636       -4.13502851010164
C            4.43001584486431       -2.78705825511533       -4.83322333988524
C            3.26620366930642       -3.04034692213486       -5.57475471872336
C            2.23195405545264       -2.13052390110732       -5.62497823822524
C            2.34785687216128       -0.94082070272400       -4.91532804192901
H            5.48308631994634       -1.42505135755291       -3.56861941330472
H            5.21384836854280       -3.52598072491672       -4.81692495282074
H            3.17959242820725       -3.96786695018808       -6.11567643401130
H            1.33801432911065       -2.32852113797284       -6.18848063052533
N            1.46397063061450        0.10960390421487       -4.76333137409474
C            2.10881680590947        1.12505072081650       -3.94640425652118
H            0.76203256103101        0.39196805171894       -5.45268541675504
H            1.60823350164985        2.25629537222067       -3.92676485829947
