48
Energy =
C     0.5495971    0.8385748   -4.9566239 
C     0.3059985    0.5246515   -3.6598644 
C     0.4824796    2.1313399   -5.3699515 
C     0.1659990    3.1016743   -4.4832513 
C    -0.0795038    2.7936546   -3.1840200 
C     0.0008724    1.5019554   -2.7616624 
H     0.3560581   -0.5147564   -3.3465274 
H     0.1142892    4.1276022   -4.8311082 
H    -0.3289821    3.5895329   -2.4865256 
H     0.7957146    0.0529697   -5.6628261 
C    -0.2489472    1.1498277   -1.3110890 
C     1.0308026    0.6587870   -0.5894218 
H    -1.0268876    0.3547931   -1.2840664 
H    -0.6782121    2.0123516   -0.7519426 
C     2.0553194    1.7753277   -0.3868759 
O     0.7331124    2.4891581   -6.6980394 
H     0.9487733    1.7048808   -7.3040780 
O     2.4076458    2.1885053    0.8926971 
N     0.6575686    0.0325535    0.6888444 
H     1.5392182   -0.1132859   -1.2048899 
H     0.2093349    0.7440150    1.3159512 
H    -0.0324973   -0.7387027    0.5333860 
N     2.8238681    2.2713000   -1.4889993 
C     4.1645030    1.7027020   -1.6994048 
H     2.4011155    2.9615939   -2.1478539 
C     5.1855145    2.8176125   -1.9084824 
O     4.9149311    3.8197936   -2.8339205 
O     6.4290308    2.8139740   -1.2752126 
H     6.5388325    2.0437558   -0.6335071 
C     4.1028237    0.7669035   -2.9239378 
H     4.4842573    1.1274993   -0.7985371 
C     5.3896674   -0.0073519   -3.1036252 
H     3.8638809    1.3534986   -3.8403065 
H     3.2681741    0.0455192   -2.8021413 
C     6.4538847    0.3446828   -3.8447637 
C     6.6518370    1.4369434   -4.6277669 
C     7.8455786    1.5625172   -5.2756041 
C     8.8124833    0.6060194   -5.1344487 
C     8.5926673   -0.4811019   -4.3419473 
C     7.4039257   -0.5828254   -3.7110511 
H     5.8927662    2.2071454   -4.7339225 
H     8.0315731    2.4333984   -5.9005484 
H     9.7630625    0.7166919   -5.6504710 
H     9.3518855   -1.2451568   -4.2138337 
N     6.9831965   -1.6197254   -2.8356456 
C     5.6710352   -1.1661938   -2.4823802 
H     7.4949463   -2.4806991   -2.5343417 
H     5.0074217   -1.6858775   -1.7951353 
