48
Energy =
C     1.3772322    4.3984184   -2.8017871 
C     0.9061482    3.1734302   -3.1520515 
C     0.5581970    5.2972048   -2.1970183 
C    -0.7282002    4.9643654   -1.9461028 
C    -1.1991200    3.7364371   -2.2819309 
C    -0.3798438    2.8290220   -2.8828835 
H     1.5693752    2.4607475   -3.6318576 
H    -1.3722807    5.6899140   -1.4617982 
H    -2.2309560    3.4828638   -2.0553712 
H     2.4149177    4.6541775   -2.9927152 
C    -0.8869085    1.4416522   -3.2212995 
C    -0.6120772    0.3808698   -2.1239785 
H    -0.4465526    1.1025480   -4.1845168 
H    -1.9838553    1.4853024   -3.3998679 
C     0.8340201   -0.1014949   -2.0901001 
O     1.0111216    6.5665909   -1.8237696 
H     2.0017169    6.7162813   -1.9850060 
O     1.0560889   -1.4563201   -2.3017322 
N    -1.0793545    0.8349474   -0.8017616 
H    -1.2000362   -0.5282296   -2.3943993 
H    -0.5069683    1.6514355   -0.4800103 
H    -2.0745285    1.1509206   -0.8654039 
N     1.8290250    0.6577429   -1.3837125 
C     3.2551679    0.6103030   -1.8367172 
H     1.7617084    0.3121229   -0.3979230 
C     3.7910828    2.0362778   -1.9725918 
O     4.0952376    2.5674724   -3.2225579 
O     3.9626346    2.8547896   -0.8588378 
H     3.5811950    2.4322515   -0.0241803 
C     3.5624914   -0.2586593   -3.1129384 
H     3.8659058    0.2017391   -0.9975960 
C     4.2461924   -1.5681569   -2.7638309 
H     4.2563376    0.2678868   -3.8022108 
H     2.6731938   -0.4314255   -3.7487258 
C     5.5162780   -1.7069149   -2.3480284 
C     6.4711653   -0.7625329   -2.1416601 
C     7.7002150   -1.1673976   -1.7111847 
C     7.9551423   -2.4938891   -1.4978299 
C     6.9822929   -3.4240042   -1.7147857 
C     5.7744271   -2.9985048   -2.1400408 
H     6.2741623    0.2928174   -2.3123050 
H     8.4814888   -0.4308999   -1.5370562 
H     8.9375447   -2.8084043   -1.1544043 
H     7.1682413   -4.4801828   -1.5512852 
N     4.6354296   -3.7956552   -2.4258620 
C     3.6889101   -2.7925501   -2.8233068 
H     4.5208233   -4.8339311   -2.3709646 
H     2.6689233   -3.0068399   -3.1351542 
