48
Energy =
C     0.1264434   -1.4696620    3.8846722 
C     0.0941895   -1.7831853    2.5645941 
C     0.4800237   -0.2180225    4.2817486 
C     0.8000350    0.7116838    3.3536804 
C     0.7660939    0.4046598    2.0326995 
C     0.4133213   -0.8467379    1.6281121 
H    -0.1855676   -2.7893392    2.2641300 
H     1.0884864    1.7037987    3.6822812 
H     1.0371511    1.1622962    1.3022262 
H    -0.1296543   -2.2231304    4.6216706 
C     0.3867271   -1.1978392    0.1533950 
C     1.7658159   -1.6209164   -0.4104955 
H     0.0036241   -0.3278192   -0.4254744 
H    -0.3431516   -2.0178384   -0.0253535 
C     2.7665838   -0.4666999   -0.4260989 
O     0.5212729    0.1379624    5.6338287 
H     0.2781360   -0.6170954    6.2655010 
O     3.4784489   -0.1720945    0.7355547 
N     2.2955028   -2.8008879    0.2935844 
H     1.6148065   -1.9122063   -1.4737914 
H     2.5644266   -2.5362477    1.2729303 
H     1.5591967   -3.5414432    0.3585383 
N     2.6699090    0.5549883   -1.4407898 
C     3.9947824    1.1387445   -1.7565487 
H     2.2648059    0.1373706   -2.3106646 
C     3.8215137    2.4547915   -2.5109891 
O     4.1011184    2.5310016   -3.8714351 
O     3.3537818    3.5964939   -1.8652737 
H     3.0602829    3.3861882   -0.9225733 
C     4.8728256    0.1169706   -2.5314642 
H     4.5190171    1.4289142   -0.8134680 
C     6.3208775    0.5537688   -2.5719963 
H     4.4827575   -0.0145066   -3.5663282 
H     4.8229917   -0.8856918   -2.0544182 
C     7.2293440    0.3935093   -1.5974363 
C     7.1041534   -0.1963168   -0.3806761 
C     8.1905106   -0.2169106    0.4432727 
C     9.3707468    0.3480395    0.0451974 
C     9.4710796    0.9391123   -1.1794844 
C     8.3829139    0.9444690   -1.9777750 
H     6.1649078   -0.6384641   -0.0572548 
H     8.1148065   -0.6815294    1.4236439 
H    10.2307809    0.3300007    0.7098719 
H    10.3975736    1.3981530   -1.5073302 
N     8.2687636    1.5202077   -3.2716184 
C     6.8972466    1.2307053   -3.5813693 
H     8.9916429    2.0154963   -3.8427924 
H     6.3843663    1.5510240   -4.4887812 
