48
Energy =
C     7.0517939   -1.9832672    3.5979520 
C     6.0573826   -1.0708563    3.4546256 
C     8.3380973   -1.5727659    3.7610812 
C     8.6202760   -0.2501459    3.7769820 
C     7.6294723    0.6662372    3.6359080 
C     6.3397846    0.2610337    3.4815592 
H     5.0357424   -1.4148225    3.3172888 
H     9.6502752    0.0654849    3.8989660 
H     7.8757966    1.7249836    3.6359817 
H     6.8159543   -3.0415701    3.5786787 
C     5.2366741    1.2800325    3.3000737 
C     5.0668287    1.6725844    1.8193169 
H     5.4524398    2.1900775    3.9041694 
H     4.2819778    0.8725385    3.7013277 
C     3.7528562    2.4139612    1.5947025 
O     9.3859724   -2.4876275    3.9116172 
H     9.0916661   -3.4574703    3.8857942 
O     3.4071600    3.4744360    2.4271418 
N     6.2268450    2.4779216    1.4004023 
H     5.0256970    0.7392455    1.2092369 
H     6.1753905    3.4260941    1.8477399 
H     6.1835416    2.6388143    0.3656481 
N     2.7898218    1.9422766    0.6389790 
C     3.2672425    2.1360590   -0.7478806 
H     1.9042144    2.4741148    0.7973759 
C     3.5804869    3.5645505   -1.1460431 
O     4.4102447    3.6625969   -2.2431984 
O     3.0590211    4.7268612   -0.5821170 
H     2.5068792    4.5562005    0.2424015 
C     2.2392840    1.5662759   -1.7170318 
H     4.1911079    1.5306131   -0.8871329 
C     2.5461020    1.5575635   -3.2240172 
H     1.2849124    2.1214003   -1.5780626 
H     2.0456604    0.5197228   -1.3905992 
C     3.1396528    2.4837241   -4.0582436 
C     4.0771283    3.5247134   -3.8719342 
C     4.3123208    4.3464376   -4.9514756 
C     3.7185896    4.1403248   -6.1541913 
C     2.8990563    3.0835615   -6.3361765 
C     2.6404835    2.2746571   -5.2938510 
H     5.0772960    3.8526689   -3.1066881 
H     5.0284245    5.1629303   -4.8649376 
H     3.9358970    4.8049716   -6.9871027 
H     2.4467503    2.8910433   -7.3036079 
N     1.7899313    1.1471431   -5.3462302 
C     1.7736126    0.7541291   -3.9823917 
H     1.2936702    0.7257984   -6.1650673 
H     1.0732484    0.0193870   -3.5883591 
