48
Energy =
C     1.5426991    3.5577990   -5.6953890 
C     2.1553829    3.6989951   -4.4923909 
C     0.4347453    4.2877520   -5.9871581 
C    -0.0570932    5.1519034   -5.0714555 
C     0.5495855    5.2970759   -3.8660154 
C     1.6681613    4.5776046   -3.5681703 
H     3.0236634    3.0848647   -4.2711776 
H    -0.9462616    5.7244327   -5.3168973 
H     0.1307529    5.9942413   -3.1440970 
H     1.9382153    2.8531734   -6.4202391 
C     2.3279811    4.7422841   -2.2102329 
C     1.8227757    3.7025734   -1.1764450 
H     2.1138791    5.7641637   -1.8277612 
H     3.4408662    4.7149806   -2.2972396 
C     2.3035925    2.2851758   -1.4824940 
O    -0.2187531    4.1677251   -7.2158578 
H     0.2054422    3.4973877   -7.8487883 
O     1.6823482    1.5797052   -2.5093274 
N     2.1936498    4.1291926    0.1839667 
H     0.7099598    3.6455789   -1.2288388 
H     3.2330549    4.2562105    0.2514479 
H     1.7492304    5.0497265    0.4114731 
N     3.2491295    1.6095398   -0.6325778 
C     4.6009831    1.4870933   -1.2339831 
H     2.8494092    0.6658366   -0.4342943 
C     5.1088646    2.8175266   -1.7752360 
O     4.9933676    3.1120476   -3.1260120 
O     5.5341196    3.8363960   -0.9307561 
H     5.6208098    3.5186799    0.0241066 
C     4.6719508    0.3601487   -2.2982871 
H     5.3134037    1.2268708   -0.4206973 
C     4.6349096   -1.0196616   -1.6749062 
H     5.6279446    0.4558685   -2.8616558 
H     3.8762150    0.4890817   -3.0583983 
C     3.6078007   -1.8866516   -1.6597136 
C     2.3657368   -1.7834905   -2.1995541 
C     1.4964811   -2.8211474   -2.0329958 
C     1.8762742   -3.9360007   -1.3388834 
C     3.1285277   -4.0201696   -0.8075514 
C     3.9703046   -2.9803602   -0.9855024 
H     2.0586861   -0.9046171   -2.7549012 
H     0.4964448   -2.7603412   -2.4556425 
H     1.1776842   -4.7588501   -1.2108035 
H     3.4464395   -4.8974277   -0.2546438 
N     5.3051581   -2.8692368   -0.5138928 
C     5.6614937   -1.5706302   -1.0030359 
H     5.8717039   -3.5503198    0.0414441 
H     6.6290099   -1.0989610   -0.8454543 
