48
Energy =
C     1.6563158    6.1966053   -5.3709751 
C     2.0431008    5.1966120   -4.5381842 
C     0.5079523    6.8828339   -5.1284202 
C    -0.2469480    6.5635442   -4.0527869 
C     0.1332467    5.5644701   -3.2165386 
C     1.2830793    4.8755918   -3.4530815 
H     2.9678227    4.6560483   -4.7493150 
H    -1.1609014    7.1187586   -3.8716473 
H    -0.4905295    5.3221718   -2.3598730 
H     2.2677664    6.4448055   -6.2324682 
C     1.7038672    3.7490306   -2.5356747 
C     1.3133599    2.3610893   -3.1063624 
H     1.2671723    3.8772974   -1.5201206 
H     2.8057583    3.8124369   -2.3795294 
C     2.1446194    1.2588563   -2.4713365 
O     0.0808837    7.9171470   -5.9669781 
H     0.7013172    8.0961027   -6.7492999 
O     2.2568471    1.1873277   -1.0871424 
N    -0.1256966    2.1074526   -2.9162594 
H     1.5479043    2.3240370   -4.1983976 
H    -0.3684422    2.1508676   -1.8964241 
H    -0.6882501    2.8383385   -3.4122279 
N     3.0316290    0.4755744   -3.2785082 
C     4.4209601    0.9596155   -3.3874393 
H     2.6718139   -0.3981007   -3.7223861 
C     4.4845434    2.2742024   -4.1486224 
O     5.0785370    3.3779416   -3.5536588 
O     3.8769913    2.4408707   -5.3929379 
H     3.5398138    1.5609064   -5.7599480 
C     5.3054073   -0.1152377   -4.0548040 
H     4.8202275    1.1773203   -2.3679298 
C     5.4759531   -1.3246655   -3.1628888 
H     6.3101732    0.3060922   -4.2849418 
H     4.8633361   -0.4202651   -5.0291404 
C     6.2855704   -1.4276253   -2.0974442 
C     7.1499889   -0.5224974   -1.5704961 
C     7.8643375   -0.8774178   -0.4640534 
C     7.7059699   -2.1168290    0.0923096 
C     6.8321070   -3.0091604   -0.4548615 
C     6.1375324   -2.6347218   -1.5497278 
H     7.2762983    0.4624202   -2.0108914 
H     8.5619859   -0.1703872   -0.0214605 
H     8.2775802   -2.3914357    0.9752689 
H     6.6927400   -3.9951802   -0.0250540 
N     5.1817249   -3.4040415   -2.2659195 
C     4.7993221   -2.4793138   -3.2927032 
H     4.8516142   -4.3807457   -2.0918347 
H     4.0582700   -2.6864136   -4.0605317 
