48
Energy =
C     0.8436444   -2.5237527   -4.8133774 
C    -0.1409864   -1.8229024   -4.1965286 
C     1.7050352   -3.2808411   -4.0829008 
C     1.5819842   -3.3206192   -2.7364262 
C     0.5995032   -2.6208467   -2.1147052 
C    -0.2721386   -1.8690881   -2.8418569 
H    -0.8258605   -1.2283923   -4.7950906 
H     2.2744227   -3.9253346   -2.1610587 
H     0.5134221   -2.6714232   -1.0316445 
H     0.9383470   -2.4795685   -5.8926909 
C    -1.3853694   -1.1052651   -2.1522552 
C    -0.9932483    0.3340738   -1.7355796 
H    -1.7122661   -1.6671573   -1.2471465 
H    -2.2793630   -1.0665542   -2.8122364 
C     0.1459554    0.3635282   -0.7259735 
O     2.7236939   -4.0235829   -4.6909819 
H     2.6989873   -3.9948072   -5.7041073 
O     0.0505736   -0.4323313    0.4110918 
N    -0.7185977    1.1682594   -2.9203810 
H    -1.8563547    0.7766708   -1.1862620 
H     0.1359247    0.8177254   -3.4159096 
H    -1.5185716    1.1111483   -3.5934446 
N     1.0570971    1.4687706   -0.7040176 
C     2.4560437    1.1831158   -0.3336950 
H     0.7108102    2.4134242   -0.9897235 
C     3.2510690    2.4614231   -0.1474889 
O     3.6590533    2.8529991    1.1206100 
O     3.5814196    3.2463200   -1.2491043 
H     3.1352075    2.7545668   -2.1956645 
C     3.1219172    0.2706385   -1.3917036 
H     2.4763535    0.6718038    0.6584051 
C     3.1917703    0.8546923   -2.8004060 
H     2.5708669   -0.6928909   -1.4300192 
H     4.1576033    0.0343584   -1.0576425 
C     3.6744545    0.1782898   -3.8465842 
C     4.2545560   -1.0513703   -3.8745952 
C     4.6609387   -1.5537929   -5.0735758 
C     4.4790213   -0.8312658   -6.2174930 
C     3.8900530    0.3959104   -6.1628744 
C     3.5004987    0.8730823   -4.9591144 
H     4.3921522   -1.6360718   -2.9697282 
H     5.1184982   -2.5398774   -5.1169018 
H     4.8005311   -1.2381277   -7.1727827 
H     3.7321606    0.9799293   -7.0635351 
N     2.8492875    2.1112734   -4.7249967 
C     2.6427470    2.2159526   -3.2637464 
H     2.6021411    2.8141791   -5.4628873 
H     3.0069959    3.2648517   -3.2800773 
