48
Energy =
C    -2.4030709    4.2647943   -3.8237635 
C    -1.3330326    3.9518367   -4.5975487 
C    -2.2470253    4.4604250   -2.4870732 
C    -1.0192982    4.3411276   -1.9334688 
C     0.0546750    4.0312250   -2.7021524 
C    -0.0959341    3.8294420   -4.0410050 
H    -1.4766592    3.8000306   -5.6640948 
H    -0.9081069    4.4939829   -0.8658157 
H     1.0321076    3.9332771   -2.2347449 
H    -3.3841383    4.3587640   -4.2767888 
C     1.1015100    3.4834015   -4.9018431 
C     1.3514250    1.9566111   -5.0698410 
H     2.0087559    3.9793565   -4.4862551 
H     0.9791436    3.9420317   -5.9067497 
C     1.6482516    1.2340041   -3.7606828 
O    -3.3288329    4.7873638   -1.6626590 
H    -4.2158316    4.8450077   -2.1507073 
O     0.6881675    1.1385543   -2.7595417 
N     0.2439048    1.3140154   -5.8038119 
H     2.2917067    1.8386769   -5.6657964 
H    -0.6165108    1.2928436   -5.2017739 
H     0.0145621    1.8523683   -6.6720132 
N     2.9413490    0.6624813   -3.5307383 
C     3.8380400    1.4054770   -2.6270525 
H     3.1815671   -0.2467024   -3.9857857 
C     4.0956615    2.8168125   -3.1477678 
O     4.2600665    3.0285827   -4.5122058 
O     4.1008264    3.9233263   -2.3038720 
H     4.1123429    3.6532600   -1.3314516 
C     5.1499268    0.6133613   -2.4620480 
H     3.3415254    1.4910416   -1.6331514 
C     6.0364689    1.2107181   -1.3911031 
H     5.6898562    0.5676857   -3.4340992 
H     4.9115737   -0.4368082   -2.1819433 
C     6.9930622    2.1396897   -1.5539666 
C     7.4285083    2.7566755   -2.6827438 
C     8.4210572    3.6852226   -2.5721303 
C     8.9580429    3.9808246   -1.3498083 
C     8.5030436    3.3514082   -0.2294350 
C     7.5202030    2.4362886   -0.3645724 
H     6.9952673    2.5357988   -3.6544432 
H     8.7800494    4.1980630   -3.4611264 
H     9.7459451    4.7254092   -1.2706996 
H     8.9134341    3.5792581    0.7482861 
N     6.8983615    1.6858512    0.6694529 
C     5.9456652    0.9224318   -0.0808863 
H     7.0850565    1.6923458    1.6983041 
H     5.2420166    0.2185724    0.3568320 
