48
Energy =
C     0.0391066    5.0103979    2.0685263 
C    -0.2993377    3.7092017    1.8821406 
C     1.2904517    5.3375708    2.4887627 
C     2.1958391    4.3604492    2.7172154 
C     1.8636344    3.0581140    2.5316797 
C     0.6095770    2.7239567    2.1190691 
H    -1.3013168    3.4624927    1.5392454 
H     3.1909508    4.6384589    3.0463871 
H     2.6092007    2.2852424    2.7069097 
H    -0.6927165    5.7883526    1.8779544 
C     0.2422309    1.2749944    1.8798855 
C     0.3725967    0.8914972    0.3893764 
H    -0.8025228    1.1013845    2.2195069 
H     0.8841294    0.6025705    2.4933260 
C     1.7991390    1.0778951   -0.1227439 
O     1.6733986    6.6665353    2.6917080 
H     0.9454716    7.3416571    2.4823257 
O     2.8551719    0.5981564    0.6530622 
N    -0.0741682   -0.4950094    0.1908380 
H    -0.2897942    1.5624753   -0.2040338 
H     0.5347602   -1.1459079    0.7434966 
H    -1.0577219   -0.6088878    0.5307022 
N     2.0454695    1.4213102   -1.5016655 
C     3.2962585    2.2096753   -1.6656080 
H     1.2213812    1.9624166   -1.8507350 
C     3.1784850    3.3272380   -2.7052119 
O     2.1972039    3.2814171   -3.6878013 
O     4.0829046    4.3909248   -2.7225479 
H     4.7602255    4.3359888   -1.9766225 
C     4.4500326    1.2482512   -2.0263451 
H     3.5620871    2.7349931   -0.7177064 
C     4.1563577    0.4390916   -3.2733350 
H     4.6123587    0.5461048   -1.1788509 
H     5.4019093    1.8083208   -2.1459568 
C     4.4661599    0.7552477   -4.5415345 
C     5.1181655    1.8383794   -5.0380226 
C     5.2985190    1.9249441   -6.3872779 
C     4.8308741    0.9392040   -7.2115483 
C     4.1769975   -0.1379486   -6.6915252 
C     4.0106043   -0.2009470   -5.3537427 
H     5.4776171    2.6310992   -4.3892286 
H     5.8077977    2.7880070   -6.8092840 
H     4.9731300    1.0187221   -8.2862747 
H     3.7922734   -0.9246392   -7.3314098 
N     3.3510050   -1.2227077   -4.6194741 
C     3.4818650   -0.7242287   -3.2809388 
H     2.9013700   -2.1027063   -4.9612010 
H     3.0573067   -1.1993426   -2.3979314 
