48
Energy =
C    -0.5271663    3.8712460   -1.3159541 
C    -0.0555662    3.6964253   -0.0559806 
C     0.2257622    4.5197677   -2.2433526 
C     1.4462085    4.9895530   -1.9024384 
C     1.9180647    4.8296593   -0.6398236 
C     1.1700453    4.1795162    0.2932316 
H    -0.6619848    3.1556718    0.6670243 
H     2.0488481    5.4771046   -2.6611046 
H     2.9068956    5.2053612   -0.3950259 
H    -1.5046223    3.4831268   -1.5817288 
C     1.7050212    3.9501138    1.6936695 
C     2.6525247    2.7230130    1.8274770 
H     0.8480966    3.8117938    2.3906484 
H     2.2174579    4.8703046    2.0508441 
C     2.3181644    1.5620911    0.8967709 
O    -0.2304046    4.7136730   -3.5512192 
H    -1.1494017    4.3240537   -3.7304809 
O     1.4451266    0.5803489    1.3518263 
N     4.0645271    3.1283670    1.7333968 
H     2.4931965    2.2979444    2.8475894 
H     4.1930731    3.8030228    0.9449579 
H     4.3330737    3.6486272    2.6022188 
N     2.6381438    1.5805902   -0.5016977 
C     4.0293111    1.3419240   -0.9418321 
H     1.8462318    1.6831706   -1.1743644 
C     4.6220106    2.6520943   -1.4569554 
O     3.9796717    3.3341420   -2.4832543 
O     5.8206769    3.1745713   -0.9691180 
H     6.1996432    2.6344166   -0.2054649 
C     4.0369550    0.2937428   -2.0900129 
H     4.6809439    1.0137302   -0.1082537 
C     4.1749660   -1.2013796   -1.7959580 
H     4.8843928    0.5393446   -2.7731523 
H     3.1280199    0.4383562   -2.7161146 
C     4.0722282   -1.9402951   -0.6597838 
C     3.8418585   -1.5882227    0.6336554 
C     3.7837525   -2.5609735    1.5869282 
C     3.9582992   -3.8700949    1.2492739 
C     4.1916649   -4.2145012   -0.0446120 
C     4.2430939   -3.2343639   -0.9709794 
H     3.7022619   -0.5751502    0.9422580 
H     3.5920104   -2.2896408    2.6226532 
H     3.9079112   -4.6397121    2.0155700 
H     4.3309671   -5.2513248   -0.3319118 
N     4.4681760   -3.4082889   -2.3573870 
C     4.4030887   -2.0572699   -2.8132754 
H     4.6365704   -4.2875831   -2.8986598 
H     4.5135785   -1.7662413   -3.8565976 
