48
Energy =
C    -2.0139019   -0.5999351    0.2405185 
C    -1.1856452    0.4269107   -0.0758853 
C    -2.4737628   -0.7396906    1.5123915 
C    -2.0967932    0.1478178    2.4607592 
C    -1.2667754    1.1757714    2.1503964 
C    -0.8120185    1.3267300    0.8762157 
H    -0.8156076    0.5174130   -1.0934011 
H    -2.4649288    0.0210223    3.4731324 
H    -0.9672375    1.8722116    2.9291714 
H    -2.3031019   -1.3114803   -0.5250553 
C     0.1379154    2.4557228    0.5358171 
C     1.6121301    2.0494266    0.7624800 
H    -0.0987526    3.3395454    1.1693290 
H    -0.0192661    2.7908880   -0.5129689 
C     2.0514639    0.8968428   -0.1347158 
O    -3.3325777   -1.7837400    1.8713640 
H    -3.5553454   -2.4158834    1.1102548 
O     2.1411276   -0.3769182    0.4107468 
N     2.4866028    3.2260634    0.6143819 
H     1.7156389    1.6510077    1.8022927 
H     2.2035799    3.7936618   -0.2218648 
H     2.3636281    3.8545094    1.4439299 
N     2.2331881    1.0464239   -1.5539724 
C     3.5603904    1.6215319   -1.8934125 
H     1.4379591    1.6056213   -1.9363810 
C     3.4405578    2.9803799   -2.5828727 
O     2.6362755    3.1056361   -3.7089396 
O     4.1335688    4.1051668   -2.1319654 
H     4.6598697    3.9363677   -1.2869574 
C     4.2955426    0.6280707   -2.8157302 
H     4.1891249    1.7807900   -0.9840162 
C     4.6847995   -0.6332846   -2.0761739 
H     5.2150421    1.0990864   -3.2320411 
H     3.6514464    0.3798313   -3.6886751 
C     3.9484898   -1.7471827   -1.9278078 
C     2.7131791   -2.0476385   -2.4051107 
C     2.1791078   -3.2656380   -2.1021588 
C     2.8796772   -4.1556158   -1.3358928 
C     4.1181720   -3.8320601   -0.8667735 
C     4.6248520   -2.6209785   -1.1802143 
H     2.1500723   -1.3367214   -3.0009619 
H     1.1880501   -3.5258348   -2.4643603 
H     2.4447021   -5.1216196   -1.0929890 
H     4.6844266   -4.5232638   -0.2522261 
N     5.8847727   -2.0908829   -0.7910688 
C     5.8398253   -0.7974163   -1.4067715 
H     6.6397147   -2.5330650   -0.2183167 
H     6.6285264   -0.0529003   -1.3270298 
