48
 energy: -9.072842786343 gnorm: 0.000359120894 xtb: 6.6.0 (2ccbbd7)
C            0.44818233741109       -3.97258330134439        2.40159155545474
C           -0.04857541444875       -2.91371971620199        1.67647493428916
C            1.80114613468865       -4.31251775300350        2.33500193037269
C            2.63165254236817       -3.55023743854424        1.51218056203856
C            2.11945465877581       -2.50044880797605        0.79835065505707
C            0.78496742147355       -2.15438437447433        0.86571717993574
H           -1.09422244667322       -2.66441841532956        1.73384619399918
H            3.67530148529463       -3.80043076380887        1.45183685926204
H            2.78913844794686       -1.77106507799509        0.06851826248299
H           -0.20450803108428       -4.55196831262670        3.02967915694362
C            0.25353588379299       -1.00906432226462        0.05548972719650
C            1.19573303452892        0.20378916264080       -0.00898300857298
H           -0.70857850714967       -0.69275362764172        0.47049873166451
H            0.04286052373667       -1.35089785491300       -0.96198678618161
C            2.37586098252205       -0.02915868335673       -0.90411428317556
O            2.32887759171997       -5.36858714823267        3.05295652184511
H            1.62480305443056       -5.79590990168438        3.58729249746103
O            3.27684573695305       -1.02421423177694       -0.62535435107884
N            0.49628114512027        1.42530282935018       -0.40434050835597
H            1.60129799724756        0.37941738322603        1.00070103146918
H           -0.01468155763810        1.24899166583447       -1.26001521954950
H           -0.19621098924666        1.67305474839172        0.29043126925577
N            2.58500787600889        0.81339637496042       -2.00215663829464
C            3.89168594625026        1.44130402930855       -2.12840524169125
H            1.83780607966320        1.43260486483589       -2.32157601817740
C            3.84863013964103        2.91738842005358       -1.77331203831906
O            4.75421126788184        3.61556294485546       -2.17732922332535
O            2.82249257412248        3.37194964967196       -1.00766321902828
H            2.12768861407037        2.68266092692091       -0.80184215528235
C            4.49246420098364        1.18207809381546       -3.51356693047146
H            4.53174679721801        0.95073732606386       -1.38106176350177
C            5.98312376885488        1.20008466137307       -3.50254274390131
H            4.10856797270940        1.92444325783489       -4.21959100083437
H            4.15124041809169        0.20648423443649       -3.87563771782790
C            6.81486064026008        0.25886299087765       -2.82836286885829
C            6.53182623429525       -0.86022950526748       -2.02556261560886
C            7.57769373075948       -1.56818081925951       -1.50192012315758
C            8.90820856983626       -1.19014838152508       -1.74841914252351
C            9.20485904114248       -0.09556231634875       -2.51410357141115
C            8.14886693031911        0.64366093378479       -3.06175132906919
H            5.51087348243670       -1.11952069413204       -1.80339864912731
H            7.37987767186273       -2.42615299913322       -0.88090203684214
H            9.70849534197377       -1.76935527351501       -1.31834049978868
H           10.22008900892826        0.20711995064392       -2.69837334095423
N            8.12076800707444        1.78696226264034       -3.84198755503875
C            6.81270924289783        2.12276127229409       -4.09043961172470
H            8.94573518541410        2.31716652466836       -4.12875193603822
H            6.49010959822370        2.99025080207096       -4.64385988738296
