48
 energy: -9.066447816900 gnorm: 0.000736915355 xtb: 6.6.0 (2ccbbd7)
C           -1.51410141372844        4.90617258604249       -1.97156032371957
C           -0.81928592831988        3.95667509613525       -1.26186141036815
C           -1.38248725490695        6.25920279071065       -1.65837010419397
C           -0.52706706305053        6.61433690294132       -0.61560947924141
C            0.16453964087565        5.65643141470279        0.08735160246796
C            0.02464818303146        4.31056721400848       -0.21984234611973
H           -0.90840750223208        2.91619762365923       -1.52134779490893
H           -0.42141764672922        7.65772806870782       -0.37787703918003
H            0.82405330689593        5.94775173854971        0.88667760048484
H           -2.16160940996206        4.61446027934352       -2.77895190447752
C            0.79664984657557        3.26642870883117        0.52934117199587
C            1.96344876853357        2.67274168732453       -0.27974239803223
H            0.11652931743728        2.45937851490118        0.82155345135079
H            1.17319141474984        3.70021390058724        1.46142658063980
C            1.46127103767201        1.70263733106025       -1.33918373389963
O           -2.06832041534588        7.24171628679196       -2.34682671764409
H           -2.60947639541528        6.83722446619316       -3.05872950323137
O            0.31318630459438        1.30393914185105       -1.27785368846892
N            2.78655154330120        3.73097382728407       -0.84772661484776
H            2.60668600654894        2.08490298199884        0.39502764735092
H            2.27614620045849        4.20220316695560       -1.58134811988685
H            3.01956469778745        4.42180859590744       -0.14699423498815
N            2.28913825738491        1.25922654763028       -2.35156445352042
C            3.54866669348741        1.89481560476129       -2.74861007195520
H            1.89478051904039        0.64948999737820       -3.06489813003202
C            3.27411846239201        3.12144536037170       -3.57788737064525
O            4.30299989344438        3.92221389851356       -3.97394739377814
O            1.96659046105378        3.41075886184830       -3.90456182825736
H            1.35968809204247        2.76472131112114       -3.47657118382357
C            4.46324620861691        0.87792960362698       -3.47380429727279
H            4.04593700643206        2.21001655337051       -1.82131483364928
C            5.88063136383793        0.90587699998780       -3.00384491811365
H            4.42596328638112        1.05515977825411       -4.55347257494425
H            4.06510602481815       -0.13096176586081       -3.32202626134022
C            6.68767390352358        2.06707964164028       -2.85025111703036
C            6.43099009479270        3.42101172105320       -3.07703499832937
C            7.41001523243944        4.33214627504545       -2.81774267791414
C            8.66256063478459        3.92411775680556       -2.32647470543939
C            8.93831609218898        2.60266990183771       -2.09618855318417
C            7.94105300918289        1.65423468274588       -2.35992403618139
H            5.31830193426821        3.69108903772269       -3.53039099181570
H            7.21908451748313        5.37708087488012       -2.99584461859491
H            9.41790210682520        4.66662542141061       -2.12951408641419
H            9.89330798579162        2.28236349122340       -1.72018265774687
N            7.89409872239784        0.27680577572300       -2.22945296745155
C            6.65106820775058       -0.16400072772520       -2.61806544837762
H            8.66285328116733       -0.30151172355363       -1.88559742111728
H            6.33218869596316       -1.19368891601384       -2.61309426207245
