48
Energy =
C     2.5466151    3.4269470    1.9988380 
C     2.3539613    2.0877138    1.8857794 
C     1.4928896    4.2799086    1.8919867 
C     0.2543903    3.7866796    1.6649582 
C     0.0578864    2.4497294    1.5389528 
C     1.1067561    1.5907192    1.6562980 
H     3.2066444    1.4146958    1.9580137 
H    -0.5756873    4.4787372    1.5749913 
H    -0.9427852    2.0753975    1.3394439 
H     3.5452576    3.8158623    2.1688847 
C     0.8987230    0.1031160    1.4673124 
C     1.0990247   -0.3126553   -0.0072813 
H    -0.1258422   -0.1742473    1.7996027 
H     1.5995451   -0.4709479    2.1157578 
C     2.5386800   -0.0887093   -0.4517726 
O     1.6537822    5.6637074    2.0123522 
H     2.6214986    5.9584764    2.0905952 
O     3.5491103   -0.8634612    0.1180718 
N     0.7047968   -1.7180384   -0.1918928 
H     0.4481019    0.3165079   -0.6572196 
H     1.3104730   -2.3334346    0.4046014 
H    -0.2866530   -1.8557325    0.1141900 
N     2.8890711    1.1144393   -1.1571598 
C     4.3187899    1.4064434   -1.3808033 
H     2.1434044    1.7977823   -1.4261736 
C     4.6005104    2.9047693   -1.3750879 
O     3.6455981    3.7983488   -1.8428804 
O     5.8398774    3.4092220   -0.9799443 
H     6.4886865    2.6838448   -0.7130357 
C     4.7794868    0.7434425   -2.6960113 
H     4.9266199    0.9938579   -0.5447445 
C     3.8777225    1.0897127   -3.8644024 
H     4.8079153   -0.3582397   -2.5504645 
H     5.8232919    1.0480560   -2.9318140 
C     2.8340246    0.3748114   -4.3184683 
C     2.3394449   -0.8173034   -3.8928380 
C     1.2374806   -1.3226458   -4.5168176 
C     0.6510703   -0.6384196   -5.5450297 
C     1.1619466    0.5575169   -5.9536457 
C     2.2540307    1.0363502   -5.3217238 
H     2.7928868   -1.3618377   -3.0701486 
H     0.8207874   -2.2723433   -4.1894668 
H    -0.2291535   -1.0467249   -6.0350039 
H     0.7037744    1.1176586   -6.7616286 
N     2.9185965    2.2661761   -5.5725495 
C     3.9508608    2.2287868   -4.5761120 
H     2.7137739    2.9955914   -6.2939050 
H     4.6491199    3.0421580   -4.3764469 
