48
Energy =
C    -0.4186237    5.7373398   -0.9992916 
C    -0.5040179    4.4048357   -0.7541766 
C     0.7964142    6.3460598   -1.0542528 
C     1.9183494    5.6180016   -0.8612405 
C     1.8379855    4.2906535   -0.5944954 
C     0.6241783    3.6720133   -0.5441984 
H    -1.4814165    3.9293680   -0.7357351 
H     2.8798768    6.1143589   -0.9396407 
H     2.7549770    3.7197421   -0.4604277 
H    -1.3241667    6.3124887   -1.1617873 
C     0.5352810    2.1730493   -0.3287071 
C     0.7694449    1.3948748   -1.6448947 
H    -0.4620324    1.9059339    0.0837367 
H     1.2812129    1.8580855    0.4345291 
C     2.1768892    1.6133035   -2.1712241 
O     0.9199238    7.7159182   -1.3065774 
H     0.0367887    8.1879280   -1.4715672 
O     2.3208307    2.5780783   -3.1639127 
N     0.4782167   -0.0362811   -1.4526384 
H     0.0907263    1.8024918   -2.4342882 
H     0.9259865   -0.3870885   -0.5731229 
H    -0.5546305   -0.1623697   -1.3332291 
N     3.3139454    1.2361098   -1.3583230 
C     4.6168291    1.2033799   -2.0748353 
H     3.1208290    0.2796515   -0.9843500 
C     5.1190455    2.6026384   -2.4002023 
O     6.4473882    2.9292044   -2.1622224 
O     4.2817067    3.5451419   -2.9802441 
H     3.3031053    3.0610786   -3.0704919 
C     4.5767056    0.3143795   -3.3436410 
H     5.3857107    0.7906860   -1.3816408 
C     4.2862847   -1.1310003   -3.0118625 
H     5.5537289    0.3763911   -3.8721102 
H     3.8239052    0.7021594   -4.0666494 
C     5.1610494   -2.0379253   -2.5508719 
C     6.4902448   -1.9163404   -2.3011275 
C     7.1604824   -3.0026661   -1.8202348 
C     6.4995501   -4.1791093   -1.5966899 
C     5.1636130   -4.2760208   -1.8518887 
C     4.5233793   -3.1880687   -2.3289865 
H     7.0165510   -0.9816870   -2.4749274 
H     8.2257032   -2.9320710   -1.6125142 
H     7.0407732   -5.0400498   -1.2123123 
H     4.6234925   -5.2002107   -1.6766999 
N     3.1432284   -3.0723090   -2.6446418 
C     3.0720091   -1.7059305   -3.0743692 
H     2.3838200   -3.7883757   -2.5794739 
H     2.1540166   -1.2001696   -3.3728506 
