48
Energy =
C    -0.7253063   -4.4859755    0.2999590 
C    -0.2752381   -3.2780860   -0.1247177 
C    -0.0197860   -5.1921057    1.2234680 
C     1.1329620   -4.6839105    1.7151624 
C     1.5877811   -3.4765499    1.2942698 
C     0.8827134   -2.7633987    0.3736764 
H    -0.8469274   -2.7270626   -0.8677058 
H     1.6876941   -5.2581513    2.4488509 
H     2.5193541   -3.0894536    1.6971677 
H    -1.6494757   -4.8863195   -0.1026370 
C     1.3924558   -1.4260749   -0.1165293 
C     2.1050485   -1.5488705   -1.4818565 
H     2.0741591   -0.9664734    0.6320388 
H     0.5296340   -0.7272966   -0.2103444 
C     2.3786539   -0.1755567   -2.0809459 
O    -0.4548222   -6.4400126    1.6818175 
H    -1.3260636   -6.7498003    1.2654005 
O     1.5359961    0.2962709   -3.0796958 
N     3.3394374   -2.3536472   -1.3670763 
H     1.4086791   -2.0388374   -2.2065793 
H     3.8213697   -2.1741898   -0.4547708 
H     3.0760336   -3.3690201   -1.3565484 
N     3.4040329    0.6957014   -1.5569982 
C     4.3520246    1.1492601   -2.6048105 
H     3.9345966    0.1753449   -0.8231845 
C     3.7534700    2.2474948   -3.4967261 
O     4.1114130    2.3254884   -4.8373995 
O     2.9671376    3.2718464   -2.9687651 
H     2.6776959    3.0622188   -2.0255612 
C     4.9254088   -0.0610400   -3.4033336 
H     5.1931365    1.6613657   -2.0862812 
C     6.2705347    0.2393696   -4.0349184 
H     4.1860492   -0.3859064   -4.1674040 
H     5.0512136   -0.9370527   -2.7286780 
C     6.5540590    0.3681874   -5.3440992 
C     5.7427456    0.2838012   -6.4312668 
C     6.2935504    0.4504697   -7.6677111 
C     7.6322931    0.6920961   -7.8012228 
C     8.4287529    0.7709367   -6.6983074 
C     7.8604657    0.6058734   -5.4852871 
H     4.6760145    0.1067051   -6.3354274 
H     5.6612769    0.3982630   -8.5510630 
H     8.0621281    0.8267209   -8.7907337 
H     9.4925424    0.9635054   -6.7870576 
N     8.5120184    0.6432893   -4.2236859 
C     7.4124795    0.3950141   -3.3400092 
H     9.5224889    0.8026218   -4.0054452 
H     7.4995136    0.3334558   -2.2576832 
