48
Energy =
C    -0.6950623   -0.3946708    2.7046675 
C     0.0517729    0.7287587    2.5584617 
C    -1.4000053   -0.8882215    1.6519922 
C    -1.3518374   -0.2534042    0.4589702 
C    -0.6075984    0.8710726    0.3071423 
C     0.0982469    1.3720095    1.3587272 
H     0.6170372    1.1068633    3.4060705 
H    -1.9145676   -0.6600399   -0.3745234 
H    -0.5812416    1.3594451   -0.6625136 
H    -0.7238517   -0.8993819    3.6642816 
C     0.9586173    2.6076497    1.1893218 
C     2.4570154    2.2503388    1.0560007 
H     0.8196284    3.2682197    2.0738933 
H     0.6188812    3.2026732    0.3147095 
C     2.7543057    1.3051561   -0.1056074 
O    -2.1806941   -2.0426986    1.7688817 
H    -2.1536189   -2.4689085    2.6888211 
O     3.1806342    0.0146825    0.1825408 
N     3.2717986    3.4766941    0.9965932 
H     2.7599781    1.6735670    1.9642443 
H     2.8343446    4.2007988    0.3812236 
H     3.3277932    3.9020671    1.9529707 
N     2.5153322    1.6558570   -1.4812351 
C     3.6474814    2.4037600   -2.0846936 
H     1.5769808    2.0912208   -1.5898058 
C     3.2327820    3.6522705   -2.8781015 
O     4.0206411    4.0701040   -3.9438406 
O     2.1771177    4.4835206   -2.4976863 
H     1.7699205    4.2403687   -1.6141895 
C     4.4597907    1.4062564   -2.9492582 
H     4.3371980    2.8097153   -1.3063864 
C     3.6424850    0.8075154   -4.0825880 
H     4.8462574    0.5920906   -2.2977113 
H     5.3574407    1.9128504   -3.3703491 
C     2.8941326   -0.3094312   -4.0432468 
C     2.6960923   -1.1938474   -3.0322945 
C     1.8721936   -2.2582558   -3.2498817 
C     1.2678440   -2.4264723   -4.4644010 
C     1.4856314   -1.5311588   -5.4687483 
C     2.3038298   -0.4851744   -5.2273861 
H     3.1772916   -1.0693316   -2.0694471 
H     1.6970349   -2.9755522   -2.4513956 
H     0.6127010   -3.2779285   -4.6300801 
H     1.0159395   -1.6501206   -6.4391287 
N     2.6581497    0.5498136   -6.1317831 
C     3.5256011    1.3449995   -5.3117241 
H     2.3697052    0.6902441   -7.1273239 
H     4.0112140    2.2615343   -5.6429173 
