48
Energy =
C    -0.2677144    5.3054419   -1.2568359 
C    -0.7632217    4.0419878   -1.2361995 
C     0.6171518    5.6777359   -2.2204898 
C     1.0001796    4.7802164   -3.1568980 
C     0.4975978    3.5201628   -3.1470040 
C    -0.3817952    3.1395156   -2.1823687 
H    -1.4625338    3.7576333   -0.4547177 
H     1.7203817    5.0790223   -3.9107063 
H     0.8115500    2.8162466   -3.9119305 
H    -0.5791858    6.0165591   -0.4996261 
C    -0.9124085    1.7207562   -2.1497827 
C     0.0111476    0.7330417   -1.3936027 
H    -1.0610844    1.3569674   -3.1922545 
H    -1.9210970    1.7058215   -1.6825143 
C     1.3332912    0.4940727   -2.1136753 
O     1.1390478    6.9752494   -2.2730423 
H     0.8315436    7.5729794   -1.5145112 
O     1.2909406    0.0239775   -3.4229188 
N     0.1982270    1.1519597    0.0089591 
H    -0.4853407   -0.2643821   -1.3979064 
H     0.7491609    2.0443364    0.0427901 
H    -0.7313662    1.3421244    0.4514680 
N     2.5251340    0.2557521   -1.3511520 
C     3.8199867    0.7508671   -1.8550445 
H     2.4341092   -0.2245633   -0.4279066 
C     3.7620320    2.1884896   -2.3862967 
O     4.1020895    3.2300094   -1.5330945 
O     3.3974030    2.5017572   -3.6989915 
H     2.9927452    1.7115090   -4.1773625 
C     4.4057457   -0.2784778   -2.8465967 
H     4.5152090    0.8078606   -0.9864802 
C     5.8296218    0.0602332   -3.2297285 
H     3.7690814   -0.3602770   -3.7545975 
H     4.3696692   -1.2900402   -2.3884528 
C     6.9438610   -0.2799577   -2.5620160 
C     7.0905742   -1.0140311   -1.4287910 
C     8.3497220   -1.2081837   -0.9412857 
C     9.4300603   -0.6689818   -1.5835069 
C     9.2577487    0.0690281   -2.7168030 
C     8.0027871    0.2440622   -3.1811116 
H     6.2349273   -1.4368213   -0.9118342 
H     8.4953235   -1.7912901   -0.0350349 
H    10.4301444   -0.8248932   -1.1866190 
H    10.1028989    0.5102368   -3.2342634 
N     7.6057871    0.9876998   -4.3240458 
C     6.1813722    0.8262145   -4.2780888 
H     8.1955931    1.5056290   -5.0154035 
H     5.4847313    1.3006149   -4.9694497 
