48
 energy: -9.278269410134 gnorm: 0.000670230824 xtb: 6.6.0 (2ccbbd7)
C           -2.02584111227139       -1.44047169893913       -3.89136195480900
C           -0.77253652292511       -0.89260290617499       -3.75694361004614
C           -2.19480696140494       -2.68151599433119       -4.50478715740317
C           -1.06069606099706       -3.34629522745934       -4.96892537803033
C            0.18889698644429       -2.79195425833472       -4.82625127077244
C            0.35429287289504       -1.55405762245354       -4.22104220507098
H           -0.64994071351649        0.04959681858597       -3.25051095500023
H           -1.19011652631935       -4.30458523949685       -5.43898420501460
H            1.05428400460250       -3.32038125981056       -5.18703549999607
H           -2.88802180008598       -0.91951109997455       -3.51573317527529
C            1.72212452444623       -0.96181031283930       -4.05818761444532
C            2.23922160910566       -0.94504625652941       -2.60475384581771
H            1.71634706320512        0.05812169133278       -4.45501446849105
H            2.42165184511839       -1.52144337017663       -4.68815887614841
C            1.66685425047856        0.22079434765285       -1.82882737764293
O           -3.43924998707023       -3.26151512231562       -4.65941596089520
H           -4.13058564403566       -2.68445516259152       -4.27022444268952
O            0.50814672055077        0.13363866632885       -1.47850352161223
N            1.89990495553705       -2.16155597729021       -1.88500523969023
H            3.33599887987190       -0.86650511193620       -2.60536794596158
H            0.93657112591648       -2.07158348907319       -1.57733365434834
H            1.96932030478265       -2.97354668934479       -2.48637725639055
N            2.42381923170712        1.33833943631727       -1.53068517856223
C            3.88642846986762        1.39356721789910       -1.64476450893150
H            2.04842291261350        1.97403843740319       -0.83072343240659
C            4.43110524864162        2.51372035312758       -0.78185111897277
O            5.41481197382211        2.29226612093271       -0.10898166754200
O            3.78309172380915        3.69954954243969       -0.86646473524754
H            3.02541245795733        3.64123078224431       -1.49426711271405
C            4.35651447637092        1.56240457615575       -3.09470088220719
H            4.27912787509774        0.45202134555983       -1.23679527310860
C            5.78718887864962        1.19408598621376       -3.31735879987485
H            4.19813755865214        2.60005408533107       -3.40246242355508
H            3.72866466455114        0.96270799200240       -3.75726798931752
C            6.33773256088200        0.64843822526642       -4.51501796699583
C            5.77210368126447        0.28715862726024       -5.74999743927720
C            6.58912068998744       -0.22366542574192       -6.72030685046934
C            7.96627492208404       -0.38825821003144       -6.49932880361018
C            8.53913701064216       -0.04142338087768       -5.30652058878468
C            7.72011300622813        0.48350987528103       -4.29921960237304
H            4.71807327769473        0.41826428992621       -5.91793576967937
H            6.17148655269010       -0.50433836267265       -7.67295654443099
H            8.58106571026529       -0.79439901579670       -7.28529929181133
H            9.59252445416849       -0.16277343287133       -5.12857906472176
N            7.99647672166194        0.91999068024358       -3.01567844731597
C            6.82988807154040        1.34982643227220       -2.43801047964671
H            8.92325993830355        0.93063980524445       -2.58583303880427
H            6.74474608512617        1.73473060191331       -1.43462377769723
