48
Energy =
C     1.1190804    0.2240430    3.8431943 
C     1.5346068    1.2639868    3.0709603 
C     0.4300684   -0.8121385    3.2861522 
C     0.1550870   -0.7964124    1.9615704 
C     0.5697692    0.2444337    1.2012780 
C     1.2704425    1.2674589    1.7364075 
H     2.0767494    2.0869206    3.5286072 
H    -0.3906627   -1.6216510    1.5190258 
H     0.4321321    0.3512409    0.0388772 
H     1.3383377    0.2230341    4.9053994 
C     1.6818608    2.4213314    0.8349949 
C     2.2889266    1.9636028   -0.5290257 
H     2.4228035    3.0563716    1.3680581 
H     0.7882183    3.0568469    0.6459889 
C     1.2588779    1.3354318   -1.5052328 
O     0.0001718   -1.9021431    4.0493544 
H     0.2270756   -1.8291417    5.0350062 
O     0.2916337    0.4391291   -1.0476341 
N     2.9874604    3.1058811   -1.1465204 
H     3.0272522    1.1503678   -0.3273341 
H     2.3357657    3.9257908   -1.2124785 
H     3.7896018    3.4014782   -0.5397164 
N     1.3610435    1.5051781   -2.9263997 
C     2.6414473    0.9955225   -3.4817066 
H     1.2496917    2.5298459   -3.1023171 
C     2.9580266    1.6709170   -4.8140082 
O     2.7202238    1.0121153   -6.0146979 
O     3.4921822    2.9593788   -4.8540760 
H     3.5717776    3.3721208   -3.9351948 
C     2.5734571   -0.5488294   -3.6338387 
H     3.5077478    1.2703323   -2.8417654 
C     2.8477985   -1.2760536   -2.3351670 
H     3.3107315   -0.9055674   -4.3887074 
H     1.5695203   -0.8253601   -4.0312309 
C     4.0310342   -1.3842981   -1.7109556 
C     5.2534826   -0.9209729   -2.0780783 
C     6.3091812   -1.1491646   -1.2451297 
C     6.1292134   -1.8287053   -0.0718267 
C     4.8926303   -2.2870615    0.2741840 
C     3.8651666   -2.0513984   -0.5677708 
H     5.3997011   -0.3862708   -3.0125549 
H     7.2998522   -0.7914639   -1.5167860 
H     6.9759115   -2.0075792    0.5864786 
H     4.7320155   -2.8286350    1.2005190 
N     2.5085715   -2.4320246   -0.3940884 
C     1.9177994   -1.8942004   -1.5868419 
H     2.0641333   -2.9595623    0.3928512 
H     0.8521901   -1.9190178   -1.8205448 
