48
 energy: -9.075838715224 gnorm: 0.000790311649 xtb: 6.6.0 (2ccbbd7)
C            0.97751788922917       -1.83080071390989        3.07481638380215
C            0.57076420555031       -0.61199192170724        2.58485218222214
C            1.70489596854479       -2.71155403870439        2.27447585617384
C            2.00149188214242       -2.32053021415643        0.97029845448759
C            1.59075030598546       -1.10016620592239        0.49218358735144
C            0.86254990637855       -0.22322279257852        1.28378338590500
H            0.02055099049683        0.06162828937730        3.21958436196951
H            2.55852110546670       -2.99857530777835        0.34843745538330
H            1.82203016088427       -0.82504758279309       -0.51982798379651
H            0.74254548419535       -2.11526265821674        4.08467267485231
C            0.44860776060948        1.14492473602496        0.81539202636713
C            0.12419451225587        1.29402202243369       -0.68266664382959
H            1.23595087887555        1.85573776125645        1.08561845926184
H           -0.43514019013184        1.44517501538474        1.38809051949667
C            1.36307373617590        1.19578554877257       -1.54213186697824
O            2.13459223012297       -3.94085425372459        2.73753958763037
H            1.84191011299078       -4.07074903687186        3.66540234802046
O            1.54706935048261        0.19484039000602       -2.20273360000746
N           -0.86960814197668        0.32959226455987       -1.12146817367274
H           -0.30495489653402        2.29602580417313       -0.84908191980297
H           -1.00318303199806        0.42438048644775       -2.12009021262645
H           -0.49136635843076       -0.59624153911034       -0.98440929316650
N            2.23726936842967        2.25910170396356       -1.51982913897251
C            3.55796194590423        2.24382413342315       -2.16752626886619
H            2.00621487183972        3.10724617701545       -0.99939960308838
C            3.42906221413328        2.51508406812337       -3.63874886851364
O            4.31840904038994        3.36401133390669       -4.23090880752100
O            2.43232793295080        1.85463755524053       -4.31162383848140
H            2.01863518402293        1.22541348161426       -3.67041009903178
C            4.30535340232978        0.92855962775613       -1.89207371169681
H            4.14378509568355        3.06534660209090       -1.72878639728322
C            5.79550651295006        1.03901207783162       -1.80062596911556
H            4.03103424107004        0.19166579806629       -2.65347686536518
H            3.93422226240497        0.51929379648256       -0.94644773307037
C            6.68038696032708        1.93809617663627       -2.47535566021409
C            6.49281261126607        2.97266313037138       -3.40295215211390
C            7.57160133650925        3.66853596477210       -3.85986238621708
C            8.86893747192683        3.36882880279554       -3.41443124554102
C            9.08754916431817        2.36462506839143       -2.51207587540011
C            7.98744964721654        1.63914758935747       -2.03657933747317
H            5.36481699331484        3.20568514203459       -3.82929909904258
H            7.42452219106189        4.45715946660883       -4.57891079434058
H            9.70238354318058        3.93683969624921       -3.79299655135946
H           10.07608929646094        2.12296774320494       -2.16484927387678
N            7.89849689048162        0.58921694385566       -1.14240629494442
C            6.57993022055567        0.23401634149398       -1.01105640344402
H            8.69496437012587        0.15795109878909       -0.66984865152677
H            6.21869744353279       -0.55796481738940       -0.37505769347838
