48
 energy: -9.061721163226 gnorm: 0.000748062360 xtb: 6.6.0 (2ccbbd7)
C           -1.98109226505564        2.82643169445736       -6.19521199289877
C           -1.34202946738939        2.26848002056443       -5.11310683826517
C           -2.05936042996361        2.13760534637212       -7.40621905133145
C           -1.47401747445836        0.87416550386837       -7.48611360633356
C           -0.83650139685615        0.32331115975564       -6.40009293975908
C           -0.76423123699115        1.00999648716126       -5.19636357305204
H           -1.27972986693238        2.81163477571174       -4.18553368787353
H           -1.53301495803920        0.34404124399142       -8.41993654846575
H           -0.38274900720151       -0.64994110517767       -6.47844723178226
H           -2.42455960733405        3.80316499139664       -6.11931825134655
C           -0.02457419335052        0.43686892769823       -4.02826035284025
C            1.33070167086974        1.10862342165259       -3.79426346565515
H            0.14046300283610       -0.63450334149557       -4.17701477344198
H           -0.63862151738082        0.51502320684981       -3.12501754103144
C            2.03074137532249        0.49661534655729       -2.59917319931774
O           -2.69138839215772        2.66995580011411       -8.51409852722159
H           -3.04760367677875        3.56013800729317       -8.30298477061507
O            1.89278571518156       -0.69687748570037       -2.40876578327346
N            2.19407604025960        1.01851149102296       -4.96423808608306
H            1.15393241469174        2.17286255319697       -3.57366404294762
H            2.43964273160788        0.04811658782817       -5.09790940248407
H            1.68684143516023        1.30644026452406       -5.79023797699985
N            2.81512277709710        1.30266969149591       -1.74774106240644
C            4.17495939693338        1.78099068142807       -2.14259552202990
H            2.91020440650500        0.92267792634926       -0.80567833923791
C            4.16274899273632        3.17139996403828       -2.70799334925515
O            5.03214116816134        4.07002338335881       -2.14997814512217
O            3.35119709574714        3.48868258354508       -3.76829102804958
H            2.98444784856995        2.66052476265444       -4.17527212341857
C            4.88766030293527        0.78675989666451       -3.07118052192018
H            4.76774493670584        1.84086745560918       -1.21550442735735
C            6.37823994159454        0.72686377290726       -2.92794914794158
H            4.62981551969655        1.00848561849274       -4.11080056968951
H            4.48373232058896       -0.21299845802246       -2.87393578743287
C            7.29958707926225        1.73450926354178       -2.49323587435391
C            7.16586521726918        3.06663666752439       -2.07162736843374
C            8.27410144406616        3.77510103622742       -1.71547742903846
C            9.55135021192708        3.19488916548300       -1.76207824123725
C            9.71999841576965        1.90191499365845       -2.17358073027385
C            8.58907978571539        1.16314188065086       -2.54484656366321
H            6.06320199001325        3.60767695656720       -2.07673336303539
H            8.16649496199704        4.79982851843434       -1.40064185525117
H           10.40901648436240        3.78018845341740       -1.47457701169756
H           10.69316566763868        1.44690155172916       -2.21951647350144
N            8.45475638345920       -0.13289177979529       -3.00399257059232
C            7.12664225809336       -0.38276372314362       -3.23636305919673
H            9.22939739037557       -0.78216318144336       -3.15313593638241
H            6.73361895088419       -1.31650343437474       -3.60515001678168
