48
Energy =
C     1.9685976    2.9847887   -5.0421195 
C     1.2133695    3.2167707   -3.9377799 
C     1.7340064    1.8903940   -5.8131871 
C     0.7427621    1.0348005   -5.4755135 
C    -0.0142572    1.2596003   -4.3718918 
C     0.2127252    2.3565797   -3.5991492 
H     1.4343112    4.0826314   -3.3120123 
H     0.5682039    0.1637585   -6.0979475 
H    -0.7992757    0.5541009   -4.1118496 
H     2.7735528    3.6671805   -5.2962302 
C    -0.6022625    2.5838314   -2.3451696 
C     0.0288685    1.8823595   -1.1212529 
H    -1.6357012    2.2030538   -2.5023763 
H    -0.7066276    3.6745640   -2.1422901 
C     1.3975315    2.4537921   -0.7856700 
O     2.4999414    1.6170630   -6.9501656 
H     3.2321731    2.2967628   -7.1274505 
O     1.5541647    3.8313077   -0.6671321 
N    -0.8763430    1.9834708    0.0335509 
H     0.1778905    0.8060052   -1.3559413 
H    -1.0430711    2.9930650    0.2663484 
H    -1.8028983    1.5544025   -0.1980520 
N     2.4519916    1.5901312   -0.3391315 
C     3.7201463    1.5592871   -1.0949548 
H     2.3082258    1.0311344    0.5316715 
C     4.2372750    2.9536621   -1.4742259 
O     4.1968970    3.3813358   -2.7990273 
O     4.7865228    3.8054749   -0.5165903 
H     4.5987999    3.4715659    0.4179700 
C     3.5831459    0.6196961   -2.3154265 
H     4.5046934    1.1415112   -0.4277842 
C     3.3281557   -0.8138771   -1.9067470 
H     4.5100109    0.6543754   -2.9306528 
H     2.7623782    0.9765761   -2.9719287 
C     4.2183877   -1.6719553   -1.3835120 
C     5.5371168   -1.4995532   -1.1089050 
C     6.2303060   -2.5464920   -0.5758893 
C     5.6034136   -3.7372566   -0.3319259 
C     4.2798286   -3.8890251   -0.6217814 
C     3.6156539   -2.8381373   -1.1470220 
H     6.0384231   -0.5578831   -1.3110615 
H     7.2875030   -2.4347304   -0.3468558 
H     6.1629708   -4.5676732    0.0914097 
H     3.7686316   -4.8280920   -0.4390481 
N     2.2478407   -2.7895382   -1.5272985 
C     2.1456836   -1.4445677   -2.0126030 
H     1.5179851   -3.5361458   -1.4686572 
H     1.2419266   -1.0120072   -2.4313288 
