48
Energy =
C     3.5704764   -2.4060060    4.5315091 
C     3.6718883   -1.4614187    3.5620727 
C     3.6931060   -3.7235377    4.2175200 
C     3.9178187   -4.0866761    2.9344230 
C     4.0196809   -3.1467620    1.9613892 
C     3.8993295   -1.8267152    2.2705536 
H     3.5702583   -0.4115663    3.8270654 
H     4.0150981   -5.1403690    2.6974130 
H     4.2000580   -3.4588946    0.9371564 
H     3.3900933   -2.1051993    5.5579886 
C     3.9897654   -0.7760203    1.1874173 
C     2.5997917   -0.2333497    0.7849242 
H     4.5114085   -1.1791585    0.2932405 
H     4.6260054    0.0632837    1.5529500 
C     2.7349684    0.9277457   -0.1819447 
O     3.5906891   -4.7224417    5.1907858 
H     3.4304367   -4.3699290    6.1282830 
O     3.0757469    2.1763872    0.3229709 
N     1.7441137   -1.3052655    0.2432882 
H     2.1085364    0.2115193    1.6838659 
H     2.3056338   -1.9272121   -0.3823495 
H     1.4151620   -1.9101792    1.0330581 
N     2.6572457    0.7458645   -1.6026792 
C     3.8480964    1.1088493   -2.3933061 
H     1.8426432    0.2269537   -1.9965721 
C     3.6354305    2.4579476   -3.0773019 
O     3.0432176    2.5069185   -4.3357913 
O     4.0095849    3.6562860   -2.4713272 
H     4.2612304    3.5216611   -1.5017238 
C     4.1536901    0.0079737   -3.4352804 
H     4.7426345    1.2172889   -1.7365587 
C     4.5042048   -1.3150193   -2.7947329 
H     5.0179367    0.3284929   -4.0608464 
H     3.3005865   -0.0977386   -4.1394553 
C     3.7334560   -2.4123860   -2.7145437 
C     2.4699519   -2.6301058   -3.1636659 
C     1.8994989   -3.8474268   -2.9313772 
C     2.5924122   -4.8191298   -2.2639503 
C     3.8605402   -4.5799562   -1.8255418 
C     4.4026976   -3.3681258   -2.0666169 
H     1.9138011   -1.8625769   -3.6914620 
H     0.8888212   -4.0468065   -3.2808921 
H     2.1319339   -5.7883055   -2.0856892 
H     4.4261810   -5.3403110   -1.2970345 
N     5.6922513   -2.9151780   -1.6822740 
C     5.6780041   -1.5767117   -2.1949524 
H     6.4454881   -3.4148197   -1.1546329 
H     6.5056000   -0.8748706   -2.1071378 
