48
 energy: -9.295427603440 gnorm: 0.000838134639 xtb: 6.6.0 (2ccbbd7)
C            2.01832886221206       -3.10213994211634        2.22652959238402
C            2.04858159157473       -2.47205777283483        1.00574829027982
C            0.80171338562420       -3.36958323286285        2.85416137983184
C           -0.37187361820113       -2.97652027429490        2.21210814716907
C           -0.33068489066542       -2.34785411351231        0.99036842832335
C            0.88032719192267       -2.09112984466689        0.36384866970693
H            2.98959256835083       -2.24399876891411        0.53700646062229
H           -1.30953278009918       -3.17763413331188        2.69818262010526
H           -1.24539546409464       -2.04855289912874        0.50885456053806
H            2.93338229524858       -3.38980641313852        2.71160213659459
C            0.92455398238083       -1.40694374986568       -0.97018144816042
C            1.48206812084425        0.02575979982963       -0.91432178281447
H           -0.08184378369667       -1.39101473641774       -1.39993476814165
H            1.53287029463250       -1.99626147006262       -1.66270987680132
C            2.99507117669528        0.05838920387887       -0.96256373849021
O            0.73213334126026       -4.00377858262816        4.07988429412774
H            1.63534629865846       -4.21418207597551        4.40048574724735
O            3.65790011153643       -0.95188349905771       -0.83966367915833
N            0.96276424356474        0.85758753401690       -1.99423678790842
H            1.16725506462475        0.48936149529099        0.03359675263598
H            1.36446463687183        0.56074076598392       -2.88705921572108
H           -0.04406018558048        0.78701903352085       -2.06276535758761
N            3.55504803288160        1.29276710303040       -1.20251575116136
C            4.93755447335897        1.41229520235885       -1.63529965443957
H            2.96085282835871        2.06677619980152       -1.54791770270364
C            5.25719865535809        2.87197217089022       -1.88949243374998
O            4.33508009417946        3.64981344130848       -2.00077691446887
O            6.56884438012707        3.19845973330063       -2.01350491689045
H            7.14736430287411        2.41994685017986       -1.85555659753947
C            5.20036704124627        0.55081570904650       -2.88550121771500
H            5.56097629949981        1.06660846967394       -0.79813245546951
C            4.05076200062930        0.54070041504096       -3.83846554348550
H            5.38865640639300       -0.48282375432994       -2.57401653964564
H            6.10506202869361        0.89005165405933       -3.39882478549592
C            3.53075711357992        1.63532345620441       -4.59197818648759
C            3.95497450962631        2.96221394460608       -4.77868472253896
C            3.20508850278744        3.78901021065683       -5.56742096354663
C            2.03181381396075        3.33260634323249       -6.18918545915675
C            1.59466201917972        2.04781832784594       -6.01873889391029
C            2.34614270472964        1.18673909862541       -5.20935029068885
H            4.83042572595351        3.32157827093567       -4.26665931164993
H            3.51110906463583        4.81318106564276       -5.70301079649871
H            1.46262246806848        4.01088038788838       -6.80305707410143
H            0.69187221794514        1.69248694818440       -6.48232669027271
N            2.14339872528104       -0.12702977669550       -4.82346762651177
C            3.19248291694214       -0.51559322666228       -4.02747679793039
H            1.40571856172946       -0.73183192183442       -5.19160702036127
H            3.29326850949001       -1.48671791032123       -3.56950069758378
