48
Energy =
C     1.0922797    2.8068796   -5.4255518 
C     0.7963054    2.5063582   -4.1362562 
C     0.3943651    2.2284449   -6.4390304 
C    -0.5946309    1.3505504   -6.1541356 
C    -0.8956597    1.0469008   -4.8659538 
C    -0.2043849    1.6274450   -3.8477030 
H     1.3713025    2.9680403   -3.3366046 
H    -1.1401326    0.8916798   -6.9715928 
H    -1.6886364    0.3337786   -4.6569124 
H     1.8905916    3.5084957   -5.6429194 
C    -0.5190574    1.2667660   -2.4106485 
C     0.1065354   -0.0813313   -1.9938578 
H    -1.6220641    1.2169911   -2.2789154 
H    -0.1661435    2.0640671   -1.7187553 
C     1.6087123   -0.1175954   -2.2466295 
O     0.6733284    2.5171825   -7.7787716 
H     1.4208448    3.1900810   -7.9090600 
O     2.0705471   -1.0560642   -3.1575704 
N    -0.1962376   -0.3154785   -0.5719189 
H    -0.3332486   -0.8967771   -2.6188900 
H    -1.2344681   -0.3844217   -0.4477493 
H     0.1825298   -1.2534446   -0.2950028 
N     2.4277989    0.9748494   -1.7599752 
C     3.9236995    0.9671743   -1.8299364 
H     2.1717608    1.0070852   -0.7450933 
C     4.4437869    2.4170358   -1.6476942 
O     5.6879496    2.7946840   -2.1288996 
O     3.7370810    3.3951248   -0.9418152 
H     2.8634603    3.0769112   -0.5634963 
C     4.4753082    0.2899148   -3.1263081 
H     4.3290713    0.4043727   -0.9596254 
C     5.9826209    0.3353595   -3.2996395 
H     3.9512366    0.7054727   -4.0143806 
H     4.2618985   -0.7936476   -3.1003323 
C     6.8912993   -0.3871097   -2.6229959 
C     6.7150100   -1.3101962   -1.6420774 
C     7.8182219   -1.9141770   -1.1144120 
C     9.0664984   -1.5934644   -1.5713271 
C     9.2190282   -0.6684107   -2.5609644 
C     8.1125806   -0.0839716   -3.0663697 
H     5.7254877   -1.5732298   -1.2814360 
H     7.7044526   -2.6553817   -0.3270542 
H     9.9409052   -2.0787635   -1.1452064 
H    10.2016578   -0.4043945   -2.9367011 
N     8.0518832    0.8860481   -4.1016395 
C     6.6364123    1.1038379   -4.1907944 
H     8.8293397    1.3109294   -4.6567118 
H     6.1647537    1.8362853   -4.8428068 
