48
Energy =
C     1.6132349   -3.7429018   -3.6856118 
C     2.0102325   -3.4249943   -2.4287286 
C     0.2930710   -3.9068452   -3.9643295 
C    -0.6206929   -3.7619078   -2.9783242 
C    -0.2286910   -3.4506867   -1.7171815 
C     1.0909923   -3.2707705   -1.4343202 
H     3.0684246   -3.2880986   -2.2280653 
H    -1.6705073   -3.8954375   -3.2119852 
H    -0.9779875   -3.3399795   -0.9394419 
H     2.3549926   -3.8562504   -4.4682558 
C     1.5368152   -2.8799242   -0.0369834 
C     1.3901325   -1.3640234    0.2677523 
H     2.6034462   -3.1628653    0.1052752 
H     0.9742216   -3.4761935    0.7133328 
C     1.9415263   -0.4823538   -0.8445243 
O    -0.1492569   -4.2268621   -5.2525779 
H     0.6003519   -4.3270622   -5.9274011 
O     1.1464903   -0.2340446   -1.9593259 
N    -0.0015254   -1.0155019    0.5983676 
H     2.0094497   -1.1402187    1.1647573 
H    -0.5960546   -1.0606948   -0.2624336 
H    -0.3910765   -1.6800438    1.3054230 
N     3.3687964   -0.3377840   -0.9675959 
C     3.8021200    1.0477913   -1.2830939 
H     3.6778244   -1.0049323   -1.7084274 
C     3.3060738    2.0687279   -0.2550255 
O     2.8239045    3.3020416   -0.6780676 
O     3.4255832    1.8360205    1.1144452 
H     3.7814217    0.9103249    1.3001039 
C     3.4695620    1.4672448   -2.7465022 
H     4.9070006    1.0824705   -1.1714928 
C     4.0706158    0.5370423   -3.7840658 
H     3.8740002    2.4865635   -2.9333513 
H     2.3709273    1.5686757   -2.8705865 
C     3.4206928   -0.1996129   -4.7052073 
C     2.0912442   -0.3111199   -4.9667510 
C     1.6928179   -1.1384840   -5.9747862 
C     2.6159668   -1.8304290   -6.7068009 
C     3.9442089   -1.7018406   -6.4327979 
C     4.3141929   -0.8811209   -5.4272637 
H     1.3454261    0.2337421   -4.3985909 
H     0.6323717   -1.2518038   -6.1918167 
H     2.2883719   -2.4846779   -7.5106716 
H     4.6901312   -2.2411286   -7.0067148 
N     5.6381142   -0.6040545   -4.9958910 
C     5.3914202    0.3254381   -3.9339577 
H     6.5440292   -0.9809045   -5.3587262 
H     6.1707484    0.7956346   -3.3380998 
