48
Energy =
C     7.5096573    0.6702302   -0.0141464 
C     6.5394064    0.0723197    0.7282043 
C     7.9607236    0.0736581   -1.1529978 
C     7.4487143   -1.1057004   -1.5331595 
C     6.4871584   -1.7068905   -0.8063941 
C     6.0165090   -1.1224618    0.3310980 
H     6.1776708    0.5531768    1.6338736 
H     7.8184018   -1.5709444   -2.4279847 
H     6.1098077   -2.6533234   -1.1684057 
H     7.9207800    1.6232090    0.3006026 
C     4.9156149   -1.7820437    1.1357502 
C     3.4900658   -1.3893088    0.6682119 
H     5.0326404   -1.5233375    2.2106204 
H     5.0366870   -2.8861003    1.0774925 
C     3.2876064    0.1186240    0.6466550 
O     8.9459584    0.6443553   -1.9584670 
H     9.3027130    1.5227098   -1.5995964 
O     3.4858046    0.8559596    1.8116321 
N     3.1584665   -2.0196734   -0.6217542 
H     2.7710281   -1.7671529    1.4282179 
H     3.8257615   -1.6776653   -1.3506983 
H     3.3308880   -3.0508714   -0.5557942 
N     2.8033892    0.7986671   -0.5217302 
C     3.7842444    1.8039392   -1.0150361 
H     1.8903356    1.2320947   -0.2509521 
C     3.2312547    3.2317389   -1.0092792 
O     3.2672395    4.0162443   -2.1549808 
O     2.7401533    3.8077594    0.1620441 
H     2.8297339    3.1885787    0.9566356 
C     4.3186340    1.3522775   -2.3933056 
H     4.6782017    1.8734089   -0.3535779 
C     3.2395043    1.2269080   -3.4545832 
H     4.8067978    0.3600795   -2.2756064 
H     5.1245279    2.0420139   -2.7198643 
C     3.0659757    2.0056528   -4.5379970 
C     3.7671083    3.0907568   -4.9595979 
C     3.3807711    3.7078493   -6.1131090 
C     2.3143014    3.2349039   -6.8257027 
C     1.6268779    2.1428475   -6.3878325 
C     2.0260364    1.5519683   -5.2418967 
H     4.6073805    3.4795781   -4.3927139 
H     3.9211067    4.5842245   -6.4632368 
H     2.0111933    3.7333631   -7.7432169 
H     0.7783683    1.7538978   -6.9408299 
N     1.4537342    0.4083628   -4.6266285 
C     2.3003682    0.2626510   -3.4791286 
H     0.6389574   -0.1751709   -4.9263481 
H     2.1982148   -0.5294174   -2.7407684 
