48
Energy =
C    -0.3826252   -3.0009803    1.9176372 
C    -0.6787139   -2.2346066    0.8338349 
C     0.8984850   -3.0743288    2.3768065 
C     1.8745893   -2.3809723    1.7469477 
C     1.5718049   -1.6218787    0.6663580 
C     0.3030740   -1.5285355    0.2099004 
H    -1.7023923   -2.1956039    0.4713195 
H     2.8923768   -2.4392555    2.1156590 
H     2.3308598   -0.9658649    0.0547858 
H    -1.1707827   -3.5580038    2.4125830 
C     0.0246076   -0.7072572   -1.0401080 
C     0.7830320    0.6578622   -1.0953606 
H    -1.0680842   -0.5101541   -1.1076812 
H     0.2965150   -1.3168299   -1.9298872 
C     2.3098405    0.5233426   -1.3036596 
O     1.2363274   -3.8529334    3.4881260 
H     0.4492113   -4.3379069    3.9045823 
O     3.0534149   -0.3583942   -0.5097205 
N     0.1673957    1.4979930   -2.1385962 
H     0.6749670    1.1714125   -0.1097337 
H     0.1227594    0.9713092   -3.0442147 
H    -0.8159778    1.7391479   -1.8673355 
N     3.0244834    1.4931012   -2.0884721 
C     4.5002374    1.4560865   -2.0575244 
H     2.4901509    2.1997972   -2.6431477 
C     5.0998737    2.8152627   -2.3960673 
O     5.9129066    3.4497479   -1.4659297 
O     4.8822772    3.4358151   -3.6287203 
H     4.2560362    2.9050260   -4.2146287 
C     4.9975047    0.3463134   -3.0103654 
H     4.8504136    1.2397722   -1.0188437 
C     6.4863436    0.1266632   -2.8693518 
H     4.7466367    0.5944782   -4.0643098 
H     4.4653437   -0.6044517   -2.7853300 
C     7.1009765   -0.6391420   -1.9545161 
C     6.5736247   -1.4140267   -0.9719610 
C     7.4281923   -2.0919190   -0.1531264 
C     8.7809218   -1.9828442   -0.3237375 
C     9.2872422   -1.1931992   -1.3134926 
C     8.4212080   -0.5355170   -2.1128498 
H     5.4994114   -1.4932362   -0.8279335 
H     7.0308871   -2.7177374    0.6424990 
H     9.4554335   -2.5227750    0.3360485 
H    10.3572077   -1.0880803   -1.4567787 
N     8.7371669    0.3490462   -3.1790700 
C     7.4256637    0.7428065   -3.6079000 
H     9.6732195    0.6288864   -3.5522929 
H     7.2219963    1.4772024   -4.3870404 
