48
Energy =
C    -1.0622651   -0.0754565   -4.5699801 
C    -0.4591237   -1.1756839   -4.0491877 
C    -2.3014628    0.2892321   -4.1467147 
C    -2.9304472   -0.4510935   -3.2065982 
C    -2.3297297   -1.5473990   -2.6783954 
C    -1.0864104   -1.9152616   -3.0951382 
H     0.5358512   -1.4537800   -4.3909301 
H    -3.9194873   -0.1499097   -2.8789455 
H    -2.8499255   -2.1230089   -1.9173760 
H    -0.5485872    0.5170696   -5.3212617 
C    -0.4042281   -3.1242984   -2.4880876 
C     0.5774587   -2.7853693   -1.3380627 
H     0.1433321   -3.6850460   -3.2797740 
H    -1.1686548   -3.8358835   -2.1045182 
C     1.8457721   -2.0968803   -1.8252280 
O    -2.9490906    1.4172869   -4.6589899 
H    -2.3916679    1.9404653   -5.3266320 
O     2.9192616   -2.9070827   -2.1631981 
N    -0.0904199   -2.0450465   -0.2525275 
H     0.9333168   -3.7559985   -0.9194321 
H    -0.4867165   -1.1463109   -0.6146806 
H    -0.8930051   -2.6128611    0.1064062 
N     1.8841305   -0.6565750   -1.9692338 
C     2.9709923    0.0719893   -2.6914507 
H     1.7404467   -0.2455081   -1.0207395 
C     2.3183307    0.9158508   -3.7839676 
O     2.2167088    0.4137880   -5.0789044 
O     1.7449982    2.1577375   -3.5090208 
H     1.7921718    2.3888851   -2.5270616 
C     4.1247437   -0.7738384   -3.3027824 
H     3.4441763    0.8143049   -2.0142255 
C     5.2532798   -1.3095126   -2.4162830 
H     4.6403092   -0.1323514   -4.0533162 
H     3.7022075   -1.6081226   -3.9038880 
C     5.4588588   -1.3001547   -1.0724989 
C     4.7169099   -0.8058118   -0.0419487 
C     5.1811858   -0.9400165    1.2329143 
C     6.3714788   -1.5595073    1.4730553 
C     7.1053536   -2.0505577    0.4398837 
C     6.6269186   -1.9077143   -0.8137098 
H     3.7740540   -0.3200318   -0.1839464 
H     4.5959863   -0.5552897    2.0646781 
H     6.7327996   -1.6649929    2.4928110 
H     8.0529683   -2.5490040    0.6130751 
N     7.2549684   -2.3544333   -2.0016116 
C     6.3048826   -1.9362503   -2.9818347 
H     8.1694446   -2.8465092   -2.1250465 
H     6.4211595   -2.1124612   -4.0489014 
