48
Energy =
C    -0.2888174    1.2623593   -8.5192257 
C     0.3549769    1.3995302   -7.3327416 
C    -0.1284014    0.1318756   -9.2571910 
C     0.6748441   -0.8557234   -8.8015963 
C     1.3220453   -0.7246052   -7.6153805 
C     1.1687107    0.4079663   -6.8753095 
H     0.2095585    2.3081082   -6.7531821 
H     0.7888050   -1.7531106   -9.4010261 
H     1.9582435   -1.5334798   -7.2634829 
H    -0.9338856    2.0587052   -8.8752437 
C     1.8757533    0.5497865   -5.5466068 
C     1.1822373   -0.2608462   -4.4255856 
H     1.9464998    1.6201646   -5.2425865 
H     2.9328259    0.2157405   -5.6543269 
C     2.0591851   -0.3085379   -3.1924652 
O    -0.7762018   -0.0424845  -10.4834354 
H    -1.3615855    0.7397501  -10.7571155 
O     2.6585611   -1.5202786   -2.8452849 
N    -0.1360618    0.3107929   -4.1081820 
H     1.0527764   -1.3232175   -4.7423734 
H    -0.0597605    1.3399326   -3.9241604 
H    -0.7854586    0.1799212   -4.9189566 
N     2.4916516    0.9309100   -2.5974747 
C     3.6872612    0.7926496   -1.7342558 
H     1.6865457    1.2489545   -2.0087883 
C     3.8547134    2.0124941   -0.8301470 
O     3.5449603    3.2774681   -1.3138262 
O     4.3631849    1.9019310    0.4633393 
H     4.6343690    0.9569505    0.6865097 
C     4.9413947    0.6163183   -2.6225471 
H     3.5568399   -0.0830608   -1.0552403 
C     6.0584787   -0.0519729   -1.8589832 
H     5.2645805    1.5997048   -3.0312829 
H     4.7090760   -0.0124597   -3.5074052 
C     7.0657532    0.5406092   -1.1997847 
C     7.3629164    1.8579572   -1.0617592 
C     8.4484259    2.2019586   -0.3114589 
C     9.2107016    1.2358580    0.2851479 
C     8.8886540   -0.0809222    0.1387639 
C     7.8107771   -0.3963039   -0.6098882 
H     6.7462517    2.6293350   -1.5154810 
H     8.6996971    3.2515504   -0.1785234 
H    10.0700878    1.5200460    0.8869615 
H     9.4754334   -0.8585955    0.6151150 
N     7.2902201   -1.6953334   -0.8621420 
C     6.1467208   -1.3790287   -1.6710843 
H     7.6510128   -2.6230437   -0.5403051 
H     5.4173484   -2.1004449   -2.0465912 
