48
 energy: -9.285318663233 gnorm: 0.000601211354 xtb: 6.6.0 (2ccbbd7)
C           -3.76582274282640        2.13635823306431       -1.83244274116088
C           -2.40690604662863        2.03408699566630       -2.01453310997205
C           -4.47845715778800        1.10890587163942       -1.21302806733190
C           -3.77626739506167       -0.01713001161247       -0.78415785601817
C           -2.41743037935918       -0.11089770777417       -0.96794498062016
C           -1.71349808357899        0.90927431360015       -1.59047027865900
H           -1.86654122497597        2.83491097216378       -2.48987024232325
H           -4.32499557595008       -0.80780660686099       -0.30427427048733
H           -1.88531559187089       -0.98194360515927       -0.62553893728905
H           -4.29315286802400        3.01220998937286       -2.16585858143584
C           -0.22817174539325        0.81992105398907       -1.74762204929046
C            0.52870266427068        1.17117024912815       -0.46430723734400
H            0.09838782361791        1.48820672794777       -2.54969913620652
H            0.04743539229002       -0.18854540984512       -2.07346620640778
C            2.01372100553978        0.97728787147653       -0.65229079696332
O           -5.84422648026032        1.18012856395716       -1.01477683444161
H           -6.19076521576367        2.02863271732418       -1.36630107140512
O            2.54838324503027       -0.02796891724512       -0.22931881004322
N            0.25330793428174        2.52438148075553       -0.00315926271827
H            0.21276450500653        0.48577617440099        0.33778542281768
H            0.67039823671726        3.19445580735404       -0.63798996292076
H           -0.74306458719826        2.69957637449136        0.02229499328854
N            2.68859779743944        1.96179542275102       -1.33871231688874
C            4.06935833068516        1.79129701791976       -1.75699049792776
H            2.19109048875183        2.63182425637226       -1.93645729600778
C            4.39016398117058        2.92261685335085       -2.70849178934867
O            3.58411918664964        3.12279043173839       -3.59174589221622
O            5.54880762605751        3.60612308309336       -2.52970740679008
H            6.04277046353259        3.27341159696388       -1.74896306819253
C            4.28015123037697        0.43736768653787       -2.43018649420212
H            4.69832517541839        1.86267907529589       -0.85975087466611
C            5.68405126384578        0.16882496434952       -2.85638159373256
H            3.61820311131081        0.37594696727664       -3.29914926004079
H            3.95406630509141       -0.34899172643250       -1.74177855614991
C            6.34745926140265        0.70216350621721       -4.00224751892795
C            5.95653748422117        1.61281749622416       -5.00004160522505
C            6.84408734223042        1.92140826732759       -5.99244894954988
C            8.12637853652651        1.34964627496679       -6.02391311063586
C            8.53491040479613        0.47363892739522       -5.05570820526688
C            7.64070001452446        0.14538419390648       -4.02893186742913
H            4.99728185790891        2.09661965566602       -4.93483339129507
H            6.56184300407454        2.62736456614267       -6.75597315090770
H            8.80223713054255        1.61486454965672       -6.82000584296177
H            9.51799691505119        0.03830814349374       -5.06662674989481
N            7.75910892376308       -0.68212491954054       -2.92631185813425
C            6.57893158630522       -0.65951800629351       -2.22560154132715
H            8.59612120046372       -1.21652590289445       -2.68654904062222
H            6.38519564095568       -1.21771822415022       -1.32368973302681
