48
Energy =
C     2.9672866   -1.8498548    2.2718937 
C     3.0293384   -0.5463136    1.8723764 
C     1.8035593   -2.3314815    2.7994404 
C     0.7165043   -1.5298693    2.8726165 
C     0.7700004   -0.2496374    2.4246908 
C     1.9248345    0.2464050    1.9067111 
H     3.9624653   -0.1616063    1.4834850 
H    -0.2015133   -1.9309468    3.2858753 
H    -0.1192328    0.3695131    2.4804039 
H     4.2821775   -2.8378021    2.1070702 
C     1.9822972    1.6532624    1.3411813 
C     1.3660437    1.8080787   -0.0846763 
H     3.0380135    1.9980588    1.3094578 
H     1.4859891    2.3477973    2.0535586 
C     1.6914598    0.6592162   -1.0465116 
O     1.7074982   -3.6416557    3.2827179 
H     2.5772795   -4.1574724    3.2340827 
O     1.0594658   -0.5693731   -0.8950273 
N    -0.0877122    2.0264204   -0.0058321 
H     1.8146015    2.7219242   -0.5386692 
H    -0.5604548    1.1362024    0.2829734 
H    -0.3184715    2.7619577    0.7012556 
N     2.4912030    0.8672099   -2.2262105 
C     3.9429496    0.8798238   -1.9282694 
H     2.1528064    1.7256195   -2.7206796 
C     4.5581594    2.2683860   -2.1145561 
O     4.6171697    2.8234129   -3.3868529 
O     5.0484855    3.0112293   -1.0387482 
H     5.0111392    2.5102411   -0.1651180 
C     4.6495468   -0.1605713   -2.8327935 
H     4.1367755    0.5848423   -0.8765193 
C     3.9553020   -1.5127750   -2.8232839 
H     5.7032605   -0.2932617   -2.5046022 
H     4.6747478    0.2253631   -3.8778129 
C     3.7871603   -2.3271739   -1.7688518 
C     4.2295608   -2.1923017   -0.4964745 
C     3.7314183   -3.0274521    0.4645552 
C     2.8967643   -4.0554329    0.1033830 
C     2.5223250   -4.2155668   -1.1979130 
C     2.9790362   -3.3311197   -2.1092247 
H     4.9109183   -1.4006300   -0.2184664 
H     4.3674893   -2.4075257    3.4982184 
H     2.4901994   -4.7148439    0.8631138 
H     1.8311559   -4.9984422   -1.4894571 
N     2.6061392   -3.2400074   -3.4770432 
C     3.2625776   -2.0236098   -3.8586861 
H     2.0206834   -3.8928229   -4.0465993 
H     3.1374603   -1.5404071   -4.8246293 
