48
Energy =
C    -1.9023731    1.7630311    0.4105200 
C    -0.6120711    2.1460569    0.2407072 
C    -2.3619294    1.4402399    1.6488032 
C    -1.5253843    1.5032023    2.7097855 
C    -0.2340295    1.8871613    2.5462498 
C     0.2321726    2.2088378    1.3085674 
H    -0.2594554    2.4032906   -0.7562948 
H    -1.9033170    1.2410649    3.6921009 
H     0.4222006    1.9313618    3.4112936 
H    -2.5656539    1.7168858   -0.4463474 
C     1.6749160    2.6291953    1.1218792 
C     2.6702200    1.4633241    1.3356586 
H     1.9063988    3.4436172    1.8425552 
H     1.8237392    3.0637130    0.1070315 
C     2.3716178    0.2532952    0.4613554 
O    -3.6869712    1.0445183    1.8587602 
H    -4.2490973    1.0156159    1.0151252 
O     2.0334908   -0.9530420    1.0615724 
N     4.0488128    1.9472134    1.1347951 
H     2.5700825    1.0859673    2.3820350 
H     4.1073764    2.5660646    0.2906507 
H     4.3239017    2.5417285    1.9522384 
N     2.1203263    0.3935683   -0.9388288 
C     3.2675403    0.6385798   -1.8278491 
H     1.1387793    0.2984940   -1.2812512 
C     3.1530360    2.0127093   -2.4679771 
O     1.8989995    2.5610742   -2.7133539 
O     4.2845132    2.7325811   -2.8513703 
H     5.1420826    2.2283178   -2.6813695 
C     3.3184202   -0.4732083   -2.8960284 
H     4.2230215    0.6386895   -1.2505653 
C     3.9172453   -1.7447714   -2.3323868 
H     3.8997194   -0.1374814   -3.7816270 
H     2.2926281   -0.6833756   -3.2745689 
C     5.1715702   -2.1963366   -2.5068393 
C     6.1979831   -1.6735967   -3.2286860 
C     7.3921792   -2.3328327   -3.2298052 
C     7.5445275   -3.4881331   -2.5148637 
C     6.5037096   -3.9911877   -1.7930226 
C     5.3311565   -3.3237773   -1.8106446 
H     6.0888628   -0.7537582   -3.7933578 
H     8.2288873   -1.9360382   -3.7999636 
H     8.5004762   -4.0058697   -2.5181219 
H     6.6095276   -4.9022918   -1.2138934 
N     4.1416183   -3.6651284   -1.1155845 
C     3.2780993   -2.5860969   -1.4995803 
H     3.9426581   -4.4874164   -0.5003785 
H     2.2691303   -2.4361349   -1.1140550 
