48
Energy =
C     1.0975882   -1.0148331   -4.8333954 
C     1.2206196   -1.5002531   -3.5719910 
C    -0.1338892   -0.7645637   -5.3510315 
C    -1.2340033   -0.9997991   -4.6006583 
C    -1.1156377   -1.4772107   -3.3353068 
C     0.1156728   -1.7253999   -2.8094854 
H     2.2122229   -1.6872239   -3.1697833 
H    -2.2100338   -0.7963852   -5.0262453 
H    -2.0121974   -1.6553841   -2.7482788 
H     1.9879616   -0.8236977   -5.4233505 
C     0.2566453   -2.2489141   -1.3935604 
C     0.4666132   -1.1528025   -0.3164758 
H     1.1121151   -2.9608873   -1.3531345 
H    -0.6393668   -2.8509398   -1.1262009 
C     1.7682822   -0.3739415   -0.4812529 
O    -0.2956232   -0.2695409   -6.6486248 
H     0.5808631   -0.0752528   -7.1192379 
O     2.8907311   -0.8458806    0.1921002 
N    -0.7116747   -0.2746758   -0.1940776 
H     0.6011476   -1.6808845    0.6586697 
H    -0.9900622    0.1210576   -1.1214841 
H    -1.5282747   -0.8375940    0.1426540 
N     1.9484567    0.6004330   -1.5271131 
C     2.7155246    1.7867754   -1.0619113 
H     0.9993289    0.8849486   -1.8570445 
C     2.2620056    3.0854830   -1.7324494 
O     1.5283777    3.0535822   -2.9123562 
O     2.6119880    4.3291362   -1.2041421 
H     3.1458570    4.2493911   -0.3510734 
C     4.2328470    1.5520742   -1.2898232 
H     2.5441136    1.9627930    0.0273316 
C     4.5353765    0.9015037   -2.6247751 
H     4.6154831    0.8911283   -0.4804208 
H     4.8059787    2.5002434   -1.1964533 
C     4.6357432    1.4981293   -3.8238555 
C     4.5533013    2.8118044   -4.1570544 
C     4.6786697    3.1575184   -5.4704849 
C     4.8883012    2.1970929   -6.4209481 
C     4.9753157    0.8846476   -6.0631917 
C     4.8464410    0.5674511   -4.7577661 
H     4.3876486    3.5785097   -3.4068793 
H     4.6053738    4.2027658   -5.7621003 
H     4.9837811    2.4813295   -7.4660264 
H     5.1414203    0.1101592   -6.8040992 
N     4.9019875   -0.7305274   -4.1826038 
C     4.6878656   -0.4229728   -2.7982230 
H     5.0519473   -1.6564037   -4.6453534 
H     4.6164577   -1.1621280   -2.0013963 
