48
 energy: -9.275590565245 gnorm: 0.000923693445 xtb: 6.6.0 (2ccbbd7)
C           -1.17424796399065       -3.78727917017672       -3.83476058783596
C            0.13003257096579       -3.39283030162090       -3.65157160190060
C           -2.17315210458792       -2.84568340626939       -4.08193850736711
C           -1.81218151130617       -1.50005946666119       -4.13215508790559
C           -0.50562072043080       -1.11580585058603       -3.95108190819971
C            0.48764708343396       -2.05315683919978       -3.71112968690318
H            0.89025488933154       -4.13034863903821       -3.46007755077927
H           -2.58345095765994       -0.77098857742054       -4.30561768254992
H           -0.24620038935574       -0.07042984555273       -3.95236244230011
H           -1.43809357511801       -4.82856548305503       -3.78939888197445
C            1.91102475214963       -1.63312896452285       -3.50098716555096
C            2.18465874025914       -0.99099394314770       -2.12785396165943
H            2.19375919054408       -0.93322810388907       -4.29339828363853
H            2.55762247468331       -2.50715278427739       -3.63179472737930
C            1.66793900280431        0.42769764078472       -2.07262155432732
O           -3.49229768609111       -3.20839235216814       -4.27446500756020
H           -3.58981228155524       -4.18169871267582       -4.19750201645220
O            0.47061310755203        0.57747693542512       -1.94523383809494
N            1.56531962327369       -1.72939436620821       -1.03887809435684
H            3.26701456043515       -0.98045739571352       -1.93953671058459
H            0.58896011078506       -1.45259761136257       -1.00488052054167
H            1.60966202547914       -2.72772941929094       -1.20293506749901
N            2.52066224700779        1.50645648477841       -2.17893655734522
C            3.98395521268418        1.46026652282195       -2.11284793583657
H            2.14542405087741        2.45259024573222       -2.08106141766106
C            4.47943750854267        2.81534612290278       -1.64822269236463
O            3.86919484114947        3.78813728933273       -2.03315922275199
O            5.58644297434691        2.84307953001875       -0.86360365652830
H            5.93820427735799        1.93956130245362       -0.70822052446557
C            4.59693881093941        1.11137451512388       -3.46636184694260
H            4.27107007184264        0.71356690639932       -1.36215484398640
C            6.08565594735290        1.04548415976168       -3.42932906100008
H            4.28349692077291        1.86911770574100       -4.19082638285181
H            4.19821643314458        0.16177307880212       -3.83242929200451
C            6.87354682179789       -0.03902659836262       -2.94145236915917
C            6.54649718717192       -1.31060730087189       -2.44038582295407
C            7.55820592363645       -2.13008701671472       -2.02240580274901
C            8.89995321449955       -1.72018402795350       -2.08639563842722
C            9.24141198263170       -0.48599833540025       -2.56731353670544
C            8.22025291914748        0.36919892727297       -2.99971667531322
H            5.51845396645056       -1.62124238768157       -2.39240121378870
H            7.32420548539200       -3.10803581396181       -1.63571691994664
H            9.67252218180809       -2.39078223558452       -1.74830566355914
H           10.26555479792914       -0.16206245467749       -2.61499268946458
N            8.24230688589955        1.65858696283497       -3.50119377526920
C            6.95332811269088        2.06234330832381       -3.74415303226977
H            9.08439142620317        2.22551692154047       -3.61562087798421
H            6.66845275548178        3.04145150721422       -4.09552979476649
