48
Energy =
C     2.6926260   -4.5527545    2.9557518 
C     2.3619150   -3.2687030    2.6703278 
C     2.1604364   -5.5733944    2.2302047 
C     1.3012248   -5.2970152    1.2212383 
C     0.9653992   -4.0158893    0.9361251 
C     1.4970861   -2.9905367    1.6585311 
H     2.8036238   -2.4568171    3.2385008 
H     0.8845007   -6.1063968    0.6359822 
H     0.2691489   -3.8230242    0.1242224 
H     3.3879967   -4.7576489    3.7601525 
C     1.1532889   -1.5562673    1.3229884 
C     2.1447073   -0.9591505    0.2791829 
H     1.1163028   -0.9331301    2.2465732 
H     0.1064542   -1.5297666    0.9292281 
C     1.5795115    0.2568105   -0.3576887 
O     2.4784987   -6.9113351    2.5100974 
H     3.1661345   -7.0153243    3.2455265 
O     0.9843201    1.2578363    0.3971541 
N     3.4250539   -0.6242937    0.9610814 
H     2.2545677   -1.6692055   -0.7075705 
H     3.2813950    0.0056664    1.7926001 
H     3.9262610   -1.4912959    1.2718686 
N     1.6634850    0.3784510   -1.7668058 
C     3.0026939    0.5972060   -2.3510189 
H     0.7746128    0.3698407   -2.3061161 
C     3.2010406    2.0657788   -2.7207046 
O     3.3106519    2.4655018   -4.0523457 
O     3.2928855    3.0452384   -1.7311640 
H     3.0754671    2.6350754   -0.8292296 
C     3.1918635   -0.3909538   -3.5358826 
H     3.7916005    0.3912438   -1.5832338 
C     3.8763455   -1.6637680   -3.0962880 
H     3.7623354    0.0523504   -4.3753785 
H     2.2020557   -0.6973093   -3.9397547 
C     5.1932106   -1.8758472   -2.9754698 
C     6.2375115   -1.0614208   -3.2720019 
C     7.5014026   -1.5097509   -3.0187392 
C     7.6975393   -2.7479953   -2.4694356 
C     6.6299468   -3.5425454   -2.1682379 
C     5.3914870   -3.0787532   -2.4360027 
H     6.0710215   -0.0730434   -3.6878784 
H     8.3520405   -0.8735724   -3.2435663 
H     8.7042088   -3.0953751   -2.2594543 
H     6.7574588   -4.5180808   -1.7150148 
N     4.1567209   -3.7195480   -2.1621104 
C     3.2392056   -2.7456330   -2.6253727 
H     3.8862675   -4.6397724   -1.7627477 
H     2.2003963   -2.7994472   -2.3681600 
