48
Energy =
C     1.4885581    0.3256579    3.1450144 
C     1.3567732   -0.6368036    2.1973987 
C     2.0362916    0.0247636    4.3526866 
C     2.4455845   -1.2388483    4.6049944 
C     2.3124138   -2.2054520    3.6630490 
C     1.7697359   -1.9104102    2.4494736 
H     0.9128916   -0.3821677    1.2378436 
H     2.8798916   -1.4673228    5.5716626 
H     2.6440849   -3.2164218    3.8850146 
H     1.1511726    1.3353129    2.9357105 
C     1.6251924   -2.9854615    1.3900997 
C     2.9060887   -3.2088931    0.5570894 
H     0.7849148   -2.7293003    0.7070200 
H     1.3389893   -3.9462639    1.8728442 
C     3.4254352   -1.9275145   -0.0951703 
O     2.1877253    0.9926214    5.3504345 
H     1.8493245    1.9120842    5.0877497 
O     4.7609544   -1.5557729    0.0607334 
N     3.9146644   -3.8909164    1.3861214 
H     2.6329433   -3.8865892   -0.2833693 
H     4.6910743   -4.2208975    0.7647722 
H     4.3582935   -3.1965128    2.0333457 
N     2.5329522   -1.1243420   -0.8962392 
C     3.1276037    0.1538720   -1.3575224 
H     2.2311171   -1.7053171   -1.7125808 
C     2.0285947    1.1905476   -1.5705526 
O     1.4245713    1.3198971   -2.8165679 
O     1.5854175    2.0060911   -0.5303065 
H     2.0378129    1.7784975    0.3411102 
C     3.9715367   -0.0741436   -2.6391919 
H     3.7895773    0.5873916   -0.5699278 
C     4.7353587    1.1722676   -3.0320495 
H     3.3102697   -0.3900679   -3.4778173 
H     4.6896498   -0.9075341   -2.4793675 
C     5.9220544    1.5723186   -2.5491928 
C     6.7378590    0.9774356   -1.6414637 
C     7.9009754    1.6054438   -1.3062009 
C     8.2266622    2.8061209   -1.8741011 
C     7.3898924    3.3867928   -2.7804617 
C     6.2461990    2.7444221   -3.0978268 
H     6.4802983    0.0262819   -1.1840466 
H     8.5705530    1.1489527   -0.5809656 
H     9.1546497    3.3011418   -1.5990767 
H     7.6302943    4.3416949   -3.2354506 
N     5.2366192    3.1818453   -3.9964001 
C     4.2891529    2.1092288   -3.8882448 
H     5.1989278    4.0490940   -4.5800588 
H     3.3240684    2.0792178   -4.3955987 
