48
Energy =
C     2.3553639    6.2954732   -6.1003146 
C     2.3443211    5.3775533   -5.1004287 
C     1.2266643    6.9908120   -6.4025417 
C     0.0930008    6.7622775   -5.7012509 
C     0.0752185    5.8454232   -4.7006893 
C     1.2027827    5.1484653   -4.3931103 
H     3.2583168    4.8285327   -4.8699454 
H    -0.8004480    7.3228683   -5.9533072 
H    -0.8472060    5.6743809   -4.1518256 
H     3.2693680    6.4708232   -6.6578305 
C     1.1888053    4.1138300   -3.2915217 
C     0.9948065    2.6785980   -3.8422710 
H     0.4019820    4.3399955   -2.5388190 
H     2.1484702    4.1824635   -2.7292433 
C     1.4767285    1.6465729   -2.8396157 
O     1.2042870    7.9432199   -7.4265177 
H     2.0914750    8.0528887   -7.9055924 
O     1.1091857    1.7568798   -1.5025633 
N    -0.4152191    2.4425298   -4.1895802 
H     1.6245655    2.5342127   -4.7554379 
H    -1.0189423    2.5746473   -3.3424534 
H    -0.7226600    3.1268521   -4.9190488 
N     2.5584568    0.7754708   -3.1843579 
C     3.8961554    1.1874886   -2.7267097 
H     2.3470464   -0.1177503   -3.6836097 
C     4.3383242    2.4631872   -3.4373190 
O     4.3454753    2.5139091   -4.8249152 
O     4.6711502    3.6224541   -2.7377762 
H     4.7622343    3.4554964   -1.7462517 
C     4.8874010    0.0312864   -2.9645748 
H     3.8454660    1.3936525   -1.6329168 
C     6.2235348    0.2957541   -2.3043725 
H     5.0148218   -0.1419256   -4.0564349 
H     4.4610624   -0.9067867   -2.5444715 
C     7.3039904    0.8729401   -2.8559974 
C     7.5011291    1.3320765   -4.1188386 
C     8.7069188    1.8905262   -4.4249831 
C     9.6876840    1.9807435   -3.4765842 
C     9.4677221    1.5144478   -2.2147267 
C     8.2664051    0.9661890   -1.9358765 
H     6.7233140    1.2709051   -4.8744414 
H     8.8851728    2.2711830   -5.4279281 
H    10.6446864    2.4305510   -3.7288032 
H    10.2336329    1.5828740   -1.4497029 
N     7.8344064    0.4358279   -0.6904624 
C     6.4989664    0.0288280   -1.0152279 
H     8.3528154    0.3648902    0.2152558 
H     5.8042186   -0.4211368   -0.3094279 
