48
Energy =
C     1.3068843    6.1618525    0.4631951 
C     0.6441679    5.4663763   -0.4953254 
C     2.5355867    5.7523140    0.8788316 
C     3.0924842    4.6490799    0.3303746 
C     2.4351869    3.9518003   -0.6285611 
C     1.2029557    4.3532746   -1.0457489 
H    -0.3367431    5.8038556   -0.8174424 
H     4.0702900    4.3287311    0.6691440 
H     2.8980662    3.0661830   -1.0540623 
H     0.8516486    7.0454857    0.8963775 
C     0.4638685    3.5697457   -2.1114066 
C    -0.4674080    2.4624822   -1.5527250 
H     1.1987053    3.1076035   -2.8085036 
H    -0.1299073    4.2650677   -2.7437470 
C     0.2730107    1.3896750   -0.7654913 
O     3.2464336    6.4479547    1.8638935 
H     2.7571551    7.2570333    2.2300036 
O     0.8005385    1.6514381    0.4979858 
N    -1.5743765    3.0374609   -0.7709127 
H    -0.9042133    1.9339580   -2.4320977 
H    -1.1960141    3.4383611    0.1206393 
H    -2.0237171    3.8150807   -1.3068401 
N     0.3458713    0.0485546   -1.2661396 
C     1.7542819   -0.3212771   -1.5283598 
H    -0.0347593   -0.5266749   -0.4813225 
C     2.3086204    0.4214902   -2.7478169 
O     1.5320432    0.5426211   -3.8943670 
O     3.6057696    0.9374681   -2.7659969 
H     4.1132478    0.7331194   -1.9187245 
C     1.8370937   -1.8476547   -1.7460156 
H     2.3837466   -0.0522416   -0.6469927 
C     3.2707507   -2.3256825   -1.7943266 
H     1.3126267   -2.1126931   -2.6935522 
H     1.3016079   -2.3884974   -0.9370312 
C     4.0890746   -2.5164098   -0.7474889 
C     3.8526592   -2.3640312    0.5810336 
C     4.8742103   -2.6081703    1.4530587 
C     6.1015239   -2.9932404    0.9876218 
C     6.3156560   -3.1346262   -0.3515352 
C     5.2893177   -2.8902178   -1.1925598 
H     2.8796660   -2.0483483    0.9479259 
H     4.7157910   -2.4918270    2.5236653 
H     6.9129787   -3.1827925    1.6867462 
H     7.2852160   -3.4313428   -0.7384066 
N     5.3065097   -2.9547014   -2.6107144 
C     3.9619749   -2.5655831   -2.9217077 
H     6.0854826   -3.2193533   -3.2570737 
H     3.5736092   -2.4435273   -3.9317625 
