48
 energy: -9.297519492595 gnorm: 0.000790948233 xtb: 6.6.0 (2ccbbd7)
C            2.00015509270337       -5.25020516496635       -2.22017167048094
C            1.08529069260590       -4.22357196764096       -2.20019061264597
C            3.18102749882770       -5.13739554516296       -2.95491977502369
C            3.40708151602106       -3.95785648727330       -3.66293544154054
C            2.48748353169347       -2.93745512425155       -3.63665308587764
C            1.30959725706626       -3.05563199368470       -2.91417484116102
H            0.17954992818381       -4.32067744870730       -1.62674729418444
H            4.32509390456685       -3.86085416554266       -4.21421569056026
H            2.68196401224430       -2.01707104474082       -4.15980464601250
H            1.81526830090637       -6.15239115669936       -1.66540788930492
C            0.31367457519342       -1.93500274528617       -2.89612422775309
C            0.68090302119239       -0.80024350532670       -1.93426692101207
H           -0.67789479529096       -2.32639729989919       -2.64862284179660
H            0.22837618855479       -1.51670329453422       -3.90372191186110
C            1.98345869822565       -0.15248188592077       -2.34066915958024
O            4.12182854236625       -6.14956503381445       -2.98810339059942
H            3.80136267361496       -6.92156043455540       -2.47288917925719
O            2.18129249180142        0.06262431562055       -3.51853207358302
N           -0.35369389486953        0.22106428306600       -1.87129784705131
H            0.80743425844548       -1.21756967687972       -0.92387549790746
H           -0.36623330548431        0.73075843576492       -2.74497332049437
H           -1.26799711545766       -0.19341978242448       -1.73883390436944
N            2.87180834381025        0.18624644818400       -1.33908702940506
C            4.17278950763148        0.81006043919651       -1.59818166605336
H            2.52572556535320        0.32839891325616       -0.38801622854409
C            3.99207963942473        2.30064590507362       -1.81141156873663
O            4.66394260306332        3.06268498952204       -1.15154012351135
O            3.09099525271394        2.64428802536450       -2.75858764971443
H            2.68903396072977        1.81437860081893       -3.11514397382015
C            4.92493886033100        0.17982231571545       -2.77893441208739
H            4.79424829811420        0.68983678316170       -0.69818723270339
C            5.64335676560367       -1.10399454125406       -2.50279004497188
H            5.65505664611462        0.90791123656573       -3.14918596577127
H            4.22354464676074        0.02227562710752       -3.60217737617277
C            5.30659717867985       -2.16580176124477       -1.60537242285722
C            4.26621701706458       -2.36258998637528       -0.68222724527698
C            4.21263568114958       -3.52643932613236        0.02973022251854
C            5.17692830257229       -4.52940445144773       -0.15236081042515
C            6.19651436102101       -4.37217935909624       -1.04986129812332
C            6.26623641898933       -3.18189289455395       -1.78444944638022
H            3.51705744578156       -1.60642628479374       -0.56824587106338
H            3.41418763153521       -3.68215632336333        0.73609363414894
H            5.10479302555789       -5.44192847504913        0.41563835903843
H            6.92934695413620       -5.14200301852676       -1.21211631053294
N            7.14646276727165       -2.75705995852834       -2.76076278054380
C            6.76087970899183       -1.51282927876814       -3.18958636679831
H            7.93436950675694       -3.30336480874890       -3.11281931591488
H            7.26129740886953       -0.94807556244615       -3.95993237914348
