48
Energy =
C     7.3728720    1.9240296    0.0569983 
C     6.4631902    2.0216584    1.0515073 
C     7.0468987    1.5127764   -1.1903267 
C     5.7688351    1.3132422   -1.5401243 
C     4.6145733    1.8480181   -0.6769036 
C     5.1284003    1.8212729    0.8339536 
H     6.8315589    2.1594043    2.0633040 
H     5.6078880    0.9591424   -2.5530430 
H     4.5280923    2.9514865   -0.9040209 
H     8.4262439    2.0697755    0.2935217 
C     4.1983852    1.4969358    2.0999054 
C     3.8170849   -0.0387704    2.2345886 
H     3.4711497    2.3566710    2.3257129 
H     4.8429706    1.6121565    2.9819046 
C     3.1261313   -0.5745891    0.9621057 
O     8.0267340    1.2592568   -2.1462075 
H     8.9808880    1.4106834   -1.8359512 
O     3.7254653   -1.6472644    0.3163881 
N     4.9844273   -0.8975739    2.6028781 
H     3.1180764   -0.1552215    3.0996518 
H     5.7716824   -0.8962455    1.9078473 
H     5.3085015   -0.7716414    3.5931254 
N     2.2714870    0.3102195    0.1576284 
C     2.9620837    1.0324454   -0.9820583 
H     1.9659891    1.0498562    0.8406710 
C     1.9875001    2.1964767   -1.3856076 
O     0.7594485    1.9747438   -1.9888192 
O     2.3622320    3.5289123   -1.2217090 
H     1.4942923    4.0172091   -1.4623760 
C     3.1094760   -0.0445772   -2.1335241 
H     3.7631856    1.3031065   -0.0105343 
C     3.1176987    0.4630669   -3.5749428 
H     2.2392046   -0.7345778   -2.0413693 
H     4.0061918   -0.6760211   -1.9711488 
C     2.8571438   -0.2922421   -4.6576752 
C     2.5057692   -1.6028099   -4.7385714 
C     2.3048830   -2.1465263   -5.9731321 
C     2.4613933   -1.3843963   -7.0970898 
C     2.8218574   -0.0742553   -6.9934877 
C     3.0110989    0.4416143   -5.7608197 
H     2.3874240   -2.2152686   -3.8493290 
H     2.0207998   -3.1923119   -6.0638252 
H     2.3012987   -1.8256416   -8.0776859 
H     2.9570407    0.5418279   -7.8761502 
N     3.4086472    1.7646218   -5.4391351 
C     3.4653701    1.6948974   -4.0102864 
H     3.6089954    2.5679010   -6.0785454 
H     3.7772912    2.5296528   -3.3915522 
