48
Energy =
C    -1.4468086   -1.3744464   -3.7426221 
C    -1.2970467   -0.0399751   -3.5535675 
C    -0.4007108   -2.1264255   -4.1662735 
C     0.7916543   -1.5466218   -4.4018587 
C     0.9569139   -0.2246262   -4.2142783 
C    -0.0883660    0.5583673   -3.7733092 
H    -2.1595203    0.5408651   -3.2259572 
H     1.6280365   -2.1430871   -4.7358318 
H     1.9917036    0.2042542   -4.3788524 
H    -2.4127169   -1.8413010   -3.5569494 
C     0.0027479    2.0869591   -3.6144809 
C     1.2764644    2.6755216   -2.9299631 
H    -0.8658449    2.4344869   -3.0035885 
H    -0.1505131    2.5541171   -4.6125376 
C     1.7111253    1.8991527   -1.7034636 
O    -0.5237248   -3.4999600   -4.3640821 
H    -1.4496696   -3.8786868   -4.1747917 
O     0.8528408    1.8637523   -0.6179105 
N     2.3601479    2.9009998   -3.9117750 
H     1.0002441    3.6741308   -2.4996339 
H     2.5235277    2.0276829   -4.4725925 
H     1.9683970    3.5204276   -4.6611744 
N     2.7164198    0.8866209   -1.7853861 
C     4.0980287    1.2542081   -2.1534828 
H     2.3669255   -0.0940798   -1.8547170 
C     4.3131770    2.7325037   -2.5664127 
O     3.4489912    3.4679400   -3.4293371 
O     5.4634805    3.4003457   -2.1531309 
H     6.0831036    2.8437095   -1.5816227 
C     4.6442218    0.2275524   -3.1805562 
H     4.6968455    1.1233460   -1.2225277 
C     6.1191048    0.4305382   -3.4604211 
H     4.0494606    0.1895913   -4.1234083 
H     4.5203546   -0.7932966   -2.7542980 
C     6.6780353    1.2166392   -4.3991056 
C     6.0980892    2.0075403   -5.3400409 
C     6.9072000    2.7209755   -6.1754880 
C     8.2666069    2.6356596   -6.0607440 
C     8.8269863    1.8394358   -5.1077494 
C     8.0069397    1.1436773   -4.2932574 
H     5.0237334    2.0986632   -5.4307886 
H     6.4724873    3.3708380   -6.9326620 
H     8.9051062    3.2118760   -6.7272504 
H     9.9045805    1.7674601   -4.9992093 
N     8.3846703    0.2769695   -3.2346662 
C     7.1062705   -0.1369980   -2.7436508 
H     9.3435618    0.0145920   -2.9059964 
H     6.9673474   -0.8102252   -1.8998927 
