48
Energy =
C     5.8672814    2.2799776    2.7659241 
C     4.5457085    2.5844612    2.7543347 
C     6.2686670    0.9846586    2.8610096 
C     5.3434711    0.0024804    2.9518403 
C     4.0202975    0.3015665    2.9433021 
C     3.6127288    1.5959963    2.8400028 
H     4.2392288    3.6238082    2.6646920 
H     5.6751646   -1.0272537    3.0250610 
H     3.2916028   -0.5031320    2.9994894 
H     6.6011003    3.0748566    2.6884736 
C     2.1396770    1.9366767    2.7845253 
C     1.6716447    2.2765247    1.3485779 
H     1.9586781    2.8038745    3.4562280 
H     1.5207768    1.1049254    3.1900632 
C     1.5680363    1.0299711    0.4655703 
O     7.6231349    0.6355570    2.8521318 
H     8.2537867    1.4303163    2.8396794 
O     0.3203318    0.5463896    0.0798798 
N     0.3879843    2.9945778    1.4126059 
H     2.4074113    2.9510792    0.8549177 
H    -0.3460863    2.3880421    1.8522386 
H     0.4785945    3.8719384    1.9754775 
N     2.7234104    0.2269093    0.1578145 
C     3.7134282    0.9295172   -0.6945837 
H     2.3654610   -0.6328976   -0.3182889 
C     3.1190488    1.6491679   -1.9112331 
O     3.5390158    2.9424098   -2.1922421 
O     2.2513912    1.0210813   -2.8037670 
H     1.8659374    0.1720561   -2.4216698 
C     4.8059894   -0.0788582   -1.1114575 
H     4.2060154    1.7145883   -0.0772615 
C     6.0322568    0.6075903   -1.6768575 
H     4.4008847   -0.8103533   -1.8442413 
H     5.1101407   -0.6677340   -0.2167846 
C     6.2653080    0.9305469   -2.9603428 
C     5.5073391    0.7179100   -4.0673224 
C     5.9787206    1.1547579   -5.2700903 
C     7.1884891    1.7868176   -5.3500757 
C     7.9340341    1.9872735   -4.2266950 
C     7.4453411    1.5480204   -3.0478445 
H     4.5423074    0.2238608   -4.0108706 
H     5.3840165    1.0059493   -6.1684738 
H     7.5543583    2.1358296   -6.3125205 
H     8.8940545    2.4900652   -4.2722678 
N     8.0582452    1.6592829   -1.7712136 
C     7.0748831    1.0304703   -0.9396874 
H     8.9783296    2.0828800   -1.5112614 
H     7.1683161    0.9113599    0.1364894 
