48
Energy =
C    -3.7148700    2.0741112    0.9650833 
C    -2.3937119    2.3783885    1.0261735 
C    -4.1570917    0.8604270    1.3900841 
C    -3.2727441   -0.0408628    1.8744604 
C    -1.9504041    0.2578808    1.9378961 
C    -1.5032332    1.4724325    1.5158114 
H    -2.0542597    3.3520058    0.6812718 
H    -3.6383289   -1.0051935    2.2099735 
H    -1.2561326   -0.4822839    2.3266891 
H    -4.4164322    2.8033637    0.5746091 
C    -0.0288066    1.8063991    1.5650455 
C     0.6517294    1.6775483    0.1799262 
H     0.5007963    1.1664923    2.3062732 
H     0.0898477    2.8482229    1.9413092 
C     2.0696173    2.2293554    0.1978523 
O    -5.5111202    0.5137648    1.3381019 
H    -6.1098923    1.2454185    0.9710815 
O     2.7343781    2.4380907    1.4026919 
N     0.6474322    0.2764389   -0.2731341 
H     0.0914362    2.3037209   -0.5521907 
H     1.0585349   -0.3363873    0.4712101 
H    -0.3394790   -0.0393420   -0.4259613 
N     2.7084022    2.6256328   -1.0209355 
C     4.0066168    1.9989470   -1.3275616 
H     2.2418433    3.3088887   -1.6606214 
C     4.9438379    2.9589975   -2.0532715 
O     4.4271992    3.9618177   -2.8657710 
O     6.3297321    2.7915645   -2.0052896 
H     6.6084928    2.0509637   -1.3792563 
C     3.7790162    0.6987751   -2.1294149 
H     4.5284891    1.7442047   -0.3758713 
C     3.0884447    0.9415948   -3.4571779 
H     3.1563981    0.0069099   -1.5196983 
H     4.7474042    0.1791341   -2.2948923 
C     3.6689422    1.2155317   -4.6380289 
C     4.9835095    1.3303733   -4.9603788 
C     5.3120095    1.6249173   -6.2509774 
C     4.3340310    1.7953678   -7.1912023 
C     3.0209918    1.6745229   -6.8457857 
C     2.7210584    1.3845496   -5.5623021 
H     5.7638713    1.2079834   -4.2156236 
H     6.3573352    1.7338903   -6.5303053 
H     4.6041835    2.0352310   -8.2165410 
H     2.2326525    1.8117706   -7.5779972 
N     1.4263780    1.2227172   -5.0005775 
C     1.7551672    0.9435629   -3.6331992 
H     0.4909507    1.2860107   -5.4640652 
H     1.0242255    0.7693340   -2.8481306 
