48
Energy =
C     0.1644001    5.6792784   -1.3021105 
C    -0.2188715    4.4493411   -1.7284432 
C     0.4767990    5.8826116    0.0056102 
C     0.4034751    4.8525635    0.8781554 
C     0.0246372    3.6203854    0.4574637 
C    -0.2875771    3.4089887   -0.8514514 
H    -0.4597940    4.3020820   -2.7793811 
H     0.6536963    5.0274103    1.9182579 
H    -0.0244012    2.8064069    1.1757517 
H     0.2220814    6.4987233   -2.0111165 
C    -0.7014933    2.0322864   -1.3301953 
C     0.4655997    1.1724047   -1.8750616 
H    -1.4704498    2.1404800   -2.1291635 
H    -1.2071040    1.4820911   -0.5063480 
C     1.1595825    1.8043759   -3.0791003 
O     0.8761960    7.1364757    0.4783114 
H     0.9166027    7.8531401   -0.2390551 
O     0.7693839    1.4149501   -4.3552594 
N     1.4036103    0.7878860   -0.8026062 
H     0.0121387    0.2390784   -2.2860129 
H     1.7853239    1.6355993   -0.3236112 
H     0.8882327    0.2396181   -0.0734499 
N     2.2968698    2.6787759   -2.9520961 
C     3.6360115    2.0662212   -3.1843652 
H     2.2657100    3.1450166   -2.0189267 
C     4.3878502    2.8658758   -4.2416072 
O     5.7016874    3.2476562   -3.9998999 
O     3.8207741    3.1554993   -5.4830669 
H     2.8417458    2.8972895   -5.5042276 
C     3.6021315    0.5541181   -3.5551059 
H     4.2354944    2.1642530   -2.2487296 
C     4.9915845   -0.0435013   -3.6312408 
H     3.0616029    0.4027953   -4.5168549 
H     3.0334661   -0.0086072   -2.7832431 
C     5.7699306   -0.1586240   -4.7207577 
C     5.5292296    0.1978710   -6.0093299 
C     6.5042166   -0.0250294   -6.9365017 
C     7.6912373   -0.5948789   -6.5681642 
C     7.9118676   -0.9432791   -5.2689800 
C     6.9323351   -0.7124589   -4.3697237 
H     4.5946535    0.6633809   -6.3077578 
H     6.3389722    0.2612460   -7.9726254 
H     8.4649750   -0.7635409   -7.3129602 
H     8.8506325   -1.3896948   -4.9592179 
N     6.9643729   -0.9896435   -2.9766850 
C     5.6725759   -0.5189049   -2.5732114 
H     7.7240118   -1.4267124   -2.4060858 
H     5.3059620   -0.5341873   -1.5490646 
