48
Energy =
C    -1.8818939   -0.1640782    3.8371117 
C    -0.7154174   -0.0210686    3.1584210 
C    -2.8355181    0.8032290    3.7689158 
C    -2.6143682    1.9079952    3.0206570 
C    -1.4499590    2.0558776    2.3396827 
C    -0.4913163    1.0922819    2.4075303 
H     0.0353868   -0.8053610    3.2159993 
H    -3.3822831    2.6721638    2.9737019 
H    -1.2904842    2.9498223    1.7420054 
H    -2.0506083   -1.0546010    4.4326490 
C     0.7999727    1.2495320    1.6351466 
C     0.6403382    0.9123462    0.1356181 
H     1.6028065    0.6080610    2.0631020 
H     1.1578827    2.2978784    1.7487594 
C     1.8797015    1.3212127   -0.6639568 
O    -4.0494515    0.6858230    4.4541561 
H    -4.1344315   -0.1657952    4.9979713 
O     2.9828092    1.8472865    0.0123055 
N     0.3682611   -0.5284292   -0.0047207 
H    -0.2077271    1.5067086   -0.2783928 
H    -0.5604495   -0.7449480    0.4265683 
H     0.2599098   -0.7696384   -1.0155630 
N     1.7650681    1.5459323   -2.0865102 
C     3.0741939    1.5410580   -2.7887185 
H     1.1274113    0.8277901   -2.4968063 
C     3.0539664    2.5496345   -3.9351926 
O     3.4865987    2.1765728   -5.2038974 
O     2.6725746    3.8742714   -3.7276918 
H     2.3743333    4.0222801   -2.7728965 
C     3.4654118    0.1178692   -3.2878368 
H     3.8857362    1.9344973   -2.1415272 
C     3.3046006   -0.9877607   -2.2626711 
H     4.5192793    0.1279067   -3.6445261 
H     2.8474897   -0.1261447   -4.1825308 
C     3.9810769   -1.1532238   -1.1118663 
C     4.9530028   -0.3906877   -0.5493076 
C     5.4751045   -0.7815980    0.6494621 
C     5.0290613   -1.9217494    1.2576577 
C     4.0570503   -2.6763259    0.6721916 
C     3.5536549   -2.2659523   -0.5105889 
H     5.2961562    0.5234478   -1.0191773 
H     6.2416273   -0.1770311    1.1295815 
H     5.4465789   -2.2253261    2.2147028 
H     3.6899004   -3.5828311    1.1415500 
N     2.5479588   -2.9075385   -1.2801723 
C     2.4496942   -2.0182269   -2.3983737 
H     2.0297616   -3.7945410   -1.0834897 
H     1.7762418   -2.1667262   -3.2398144 
