48
 energy: -9.289475701039 gnorm: 0.000477125185 xtb: 6.6.0 (2ccbbd7)
C            3.03219603357453        4.73773976150065        3.72695673184017
C            2.71418387633269        4.03179211464123        2.59216768191843
C            2.08009921867657        4.93669381173783        4.72741412137239
C            0.80673046629658        4.39703872087346        4.54507202585491
C            0.49615039986276        3.69277917755165        3.40621284967782
C            1.44215914074667        3.50803375243833        2.40956626622594
H            3.46185314040231        3.85550911452824        1.83607413052548
H            0.07499094092143        4.54754181306031        5.31855309122579
H           -0.48911476744684        3.27850902135630        3.27807241687332
H            4.02145476541773        5.13890863440304        3.85599870459402
C            1.12036502343529        2.72881862916373        1.17410837533286
C            1.38630664920990        1.22280852132694        1.30458401525308
H            1.71648686384419        3.12360968267264        0.34629735619277
H            0.07848007851516        2.89943716559571        0.88340694291451
C            1.23659112600859        0.54961848315874       -0.05006596498373
O            2.36500683067722        5.64209162648131        5.88078877217991
H            3.29224765695084        5.96273226668582        5.85852607509816
O            0.17384656621271        0.00492179784071       -0.28339645255187
N            2.65405714389191        0.92848273597380        1.96605651252197
H            0.60033365709102        0.78181710727038        1.94045369924938
H            3.36891950292625        1.51684032649336        1.54450219334223
H            2.61695861265478        1.19077765296754        2.94217478093856
N            2.22351873820723        0.58511516771033       -1.01749364481379
C            3.64177547130626        0.87542134289026       -0.78375389967619
H            2.03072626149679        0.14199764781467       -1.91322755923893
C            3.83001057337776        2.35422791780116       -0.52255200066913
O            4.49972791094624        2.68870633283660        0.43206116097224
O            3.19721784063383        3.19128310346298       -1.37742821451392
H            2.67927004468362        2.67216946040238       -2.03600495360184
C            4.52954572351338        0.39908300852446       -1.93279492997133
H            3.93801608578007        0.31533671516633        0.11318073258130
C            4.57024926226124       -1.08755661814095       -2.06692110757410
H            5.54683389279621        0.77405451990434       -1.77955779827965
H            4.18116692862167        0.84297696515923       -2.86941597574822
C            5.57136185005916       -1.84280742055203       -2.74675795729362
C            6.74198801648402       -1.47732604303243       -3.43327343579437
C            7.51013182578053       -2.46259383338826       -3.98926705846430
C            7.14701858605139       -3.81517895897535       -3.88310318395042
C            6.01217727394656       -4.19412606236916       -3.21976417914839
C            5.21111523383322       -3.20082002123751       -2.64254573600760
H            7.01548491730326       -0.44023722533632       -3.51301748592003
H            8.41062935473222       -2.19895995648999       -4.51876141366245
H            7.77532089900891       -4.56614563893364       -4.33269674327325
H            5.72664459934432       -5.22714699289239       -3.13367850364278
N            4.02750573465582       -3.26413352662782       -1.92838499585922
C            3.64864742826634       -1.98892708513315       -1.59373659459442
H            3.51735225543853       -4.12325207979796       -1.71555551865207
H            2.75668473458838       -1.73923094914113       -1.04500209185732
