48
Energy =
C     4.2119650   -4.4202177    0.5528321 
C     3.5779798   -3.4209563   -0.1114265 
C     3.9474058   -4.6423737    1.8679431 
C     3.0490723   -3.8614963    2.5096609 
C     2.4124177   -2.8606237    1.8503799 
C     2.6717365   -2.6357376    0.5329557 
H     3.8017444   -3.2581128   -1.1601787 
H     2.8475488   -4.0478680    3.5589560 
H     1.6975068   -2.2417379    2.3867121 
H     4.9316802   -5.0409483    0.0303761 
C     1.9756645   -1.5106713   -0.2009799 
C     2.8719502   -0.2585234   -0.3584776 
H     1.0326934   -1.2265956    0.3206333 
H     1.6599828   -1.8753732   -1.2040649 
C     2.1901786    0.7794823   -1.2332274 
O     4.5839861   -5.6629234    2.5818287 
H     5.2428863   -6.2030686    2.0319830 
O     0.9614604    1.3001098   -0.8463549 
N     3.2021878    0.3190985    0.9535861 
H     3.8175495   -0.5392870   -0.8730456 
H     2.3203177    0.5329618    1.4790871 
H     3.7532798   -0.3661597    1.5209953 
N     2.6038957    0.9747045   -2.5897376 
C     3.8407277    1.7513349   -2.8148551 
H     2.1192081    0.4316852   -3.3389568 
C     3.5743302    3.0348590   -3.6035118 
O     4.6041888    3.6102800   -4.3396702 
O     2.3596725    3.7146318   -3.5323989 
H     1.7168910    3.2653381   -2.8947007 
C     4.9132206    0.8531250   -3.4793227 
H     4.2613182    2.1090614   -1.8453690 
C     4.4691984    0.2648447   -4.8060799 
H     5.2011837    0.0423466   -2.7790038 
H     5.8423196    1.4471093   -3.6423225 
C     3.9160947   -0.9429309   -5.0081009 
C     3.6237335   -1.9265994   -4.1189090 
C     3.0441000   -3.0708710   -4.5821167 
C     2.7681653   -3.2135836   -5.9138299 
C     3.0698463   -2.2126471   -6.7891525 
C     3.6438355   -1.0911613   -6.3054770 
H     3.8377802   -1.8095734   -3.0639974 
H     2.7983820   -3.8733454   -3.8903962 
H     2.3044911   -4.1276661   -6.2770484 
H     2.8545249   -2.3075775   -7.8482163 
N     4.0233388    0.0631892   -7.0393549 
C     4.5464822    0.8944938   -5.9932189 
H     3.9486501    0.2544917   -8.0652844 
H     4.9396074    1.8993863   -6.1444178 
