48
Energy =
C     4.2468454    3.9384911    4.3288294 
C     3.6629950    3.1047735    3.4310453 
C     5.2917688    4.7242233    3.9539338 
C     5.7452265    4.6709223    2.6810586 
C     5.1653012    3.8402106    1.7789427 
C     4.1209745    3.0479804    2.1499474 
H     2.8256875    2.4871902    3.7457143 
H     6.5786556    5.3026550    2.3927060 
H     5.5451244    3.8139216    0.7591806 
H     3.8750999    3.9762770    5.3472889 
C     3.4647947    2.1335004    1.1389634 
C     2.5007616    2.9069893    0.1980877 
H     2.9163198    1.3096142    1.6462514 
H     4.2750246    1.6424312    0.5582948 
C     2.0311180    2.0820562   -0.9985650 
O     5.9147104    5.5937148    4.8545353 
H     5.5178033    5.5756175    5.7875908 
O     0.9913676    2.5533480   -1.7898123 
N     1.3462831    3.4103795    0.9653568 
H     3.0356192    3.7717450   -0.2655130 
H     0.8785940    2.6299580    1.4839212 
H     1.6551034    4.1296687    1.6606103 
N     2.7216123    0.8995675   -1.4337129 
C     4.0256852    0.9883548   -2.1326359 
H     2.3009265   -0.0234743   -1.1869913 
C     4.6835968    2.3755193   -2.1455896 
O     5.9103419    2.5330278   -1.5149756 
O     4.0772182    3.5109188   -2.6792097 
H     3.1834286    3.3001467   -3.0998886 
C     3.9316188    0.3206552   -3.5211237 
H     4.7378182    0.3570696   -1.5544972 
C     3.0537139    1.0635220   -4.5038791 
H     3.5290302   -0.7088829   -3.3982412 
H     4.9530409    0.1915326   -3.9392908 
C     3.4535232    1.9060870   -5.4711150 
C     4.7029405    2.3195283   -5.8072710 
C     4.8377275    3.2120994   -6.8298443 
C     3.7349551    3.6768061   -7.4914201 
C     2.4899486    3.2547640   -7.1310125 
C     2.3828956    2.3692233   -6.1183101 
H     5.5797430    1.9725500   -5.2692333 
H     5.8268047    3.5639971   -7.1124830 
H     3.8503973    4.3930847   -8.3006470 
H     1.6036597    3.6226734   -7.6362133 
N     1.1881917    1.8311815   -5.5725867 
C     1.7114421    0.9995811   -4.5292526 
H     0.1953019    1.9857236   -5.8593536 
H     1.1013433    0.4282070   -3.8337791 
