48
Energy =
C     3.0170665    6.8659973   -1.1648174 
C     2.6883883    5.6504521   -0.6840242 
C     3.1608072    7.0965175   -2.4907585 
C     2.9756811    6.1220828   -3.3993263 
C     2.6432501    4.8669310   -3.0478495 
C     2.4836376    4.4390669   -1.5826111 
H     2.5990869    5.5154438    0.3896828 
H     3.0932742    6.3685288   -4.4487269 
H     2.4692653    4.1431795   -3.8371141 
H     3.1694093    7.6803818   -0.4642861 
C     1.0368757    3.9061277   -1.3641026 
C     0.7682816    2.4677143   -1.9104666 
H     0.3205348    4.6201761   -1.8264141 
H     0.7981253    3.8966120   -0.2771480 
C     1.4597892    1.3863505   -1.0809132 
O     3.4957513    8.3719460   -2.9626507 
H     3.6480750    9.0639585   -2.2367723 
O     1.3533077    1.4048594    0.3082801 
N    -0.6817487    2.2188567   -1.9593924 
H     1.1769784    2.3718600   -2.9416994 
H    -1.0794668    2.2880259   -0.9909487 
H    -1.1526457    2.9401258   -2.5536761 
N     2.4768746    0.5592548   -1.6744264 
C     3.8336715    1.1173019   -1.4398416 
H     2.3932512   -0.3506544   -1.1652589 
C     3.8947722    2.5877688   -1.8729917 
O     4.4253712    2.9070346   -3.1203251 
O     3.3811211    3.4549858   -1.1531883 
H     3.2577553    3.1993761   -0.2263234 
C     4.8693157    0.2648686   -2.2076148 
H     4.0812313    1.0829870   -0.3516497 
C     5.0374133   -1.1120416   -1.6047958 
H     5.8568444    0.7796179   -2.2059605 
H     4.5709925    0.1911755   -3.2764372 
C     4.3972522   -2.2372825   -1.9623988 
C     3.4708619   -2.4431833   -2.9340743 
C     2.9605313   -3.6987176   -3.0875800 
C     3.3775075   -4.7177851   -2.2765548 
C     4.3062082   -4.4869284   -1.3054908 
C     4.7969789   -3.2365748   -1.1741443 
H     3.1306105   -1.6327901   -3.5722957 
H     2.2153969   -3.8887820   -3.8563756 
H     2.9642140   -5.7150918   -2.4036737 
H     4.6438002   -5.2826944   -0.6503975 
N     5.7525550   -2.7844810   -0.2249883 
C     5.8469594   -1.3963976   -0.5697802 
H     6.2500880   -3.3222357    0.5211356 
H     6.4809640   -0.6774229   -0.0560221 
