48
Energy =
C     1.9440653    5.8917583   -1.4783369 
C     1.5320389    4.6310041   -1.1960126 
C     1.2346580    6.6637877   -2.3416122 
C     0.1246293    6.1606472   -2.9306201 
C    -0.2720376    4.8865295   -2.6788821 
C     0.4309870    4.1113786   -1.8090213 
H     2.1287411    4.0148442   -0.5244165 
H    -0.4286459    6.7831318   -3.6258819 
H    -1.1434802    4.4887528   -3.1920776 
H     2.8578728    6.2719670   -1.0349482 
C     0.0572516    2.6557436   -1.5994459 
C     0.8865390    1.7163187   -2.5109808 
H    -1.0248316    2.5048655   -1.8040567 
H     0.2170938    2.3801524   -0.5334860 
C     2.3740324    1.8556490   -2.2384999 
O     1.6229040    7.9734750   -2.6450209 
H     2.5016130    8.2643082   -2.2290096 
O     3.0386407    2.7903901   -3.0247572 
N     0.4325029    0.3228638   -2.3580378 
H     0.7532950    2.0302004   -3.5755592 
H     0.3022922    0.0907513   -1.3454058 
H    -0.5066530    0.2215225   -2.8098255 
N     2.8840148    1.5115538   -0.9302705 
C     4.3639214    1.4619535   -0.7970376 
H     2.5043944    0.5659554   -0.7018049 
C     5.0383511    2.8223229   -0.9259164 
O     6.1428017    3.1127065   -0.1395658 
O     4.6377907    3.7492392   -1.8755626 
H     3.8380756    3.2693732   -2.4488634 
C     5.0186369    0.3566493   -1.6676106 
H     4.5779891    1.1836926    0.2605018 
C     5.1671073    0.7070904   -3.1363803 
H     4.4589487   -0.5919172   -1.5442493 
H     6.0365476    0.1572359   -1.2646543 
C     4.4380309    0.2380759   -4.1642253 
C     3.3882710   -0.6253236   -4.1711809 
C     2.8048033   -0.9284245   -5.3656853 
C     3.2723035   -0.3727212   -6.5238035 
C     4.3243067    0.4932444   -6.4939312 
C     4.8852616    0.7783255   -5.3001609 
H     2.9950871   -1.0527841   -3.2547095 
H     1.9563800   -1.6075154   -5.3943451 
H     2.7983172   -0.6154180   -7.4713321 
H     4.7017765    0.9503345   -7.4022460 
N     5.9720235    1.6589178   -5.0545546 
C     6.0850883    1.5612847   -3.6269889 
H     6.5468949    2.2108721   -5.7317150 
H     6.7775583    2.1439959   -3.0163560 
