48
Energy =
C     3.8302170   -4.6258428    2.5990963 
C     4.0276124   -3.5865744    1.7488394 
C     3.4845724   -4.3938462    3.8937470 
C     3.3373405   -3.1217389    4.3284081 
C     3.5331310   -2.0787013    3.4826747 
C     3.8842927   -2.3054659    2.1872311 
H     4.2977963   -3.7883531    0.7156083 
H     3.0590115   -2.9500725    5.3624820 
H     3.4062447   -1.0633243    3.8502496 
H     3.9477691   -5.6428486    2.2407947 
C     4.0855312   -1.1435314    1.2408068 
C     2.7425045   -0.5862224    0.7150637 
H     4.7318374   -1.4427960    0.3886655 
H     4.6386721   -0.3380046    1.7780243 
C     2.9455489    0.7431945    0.0129786 
O     3.2737719   -5.4418478    4.7955594 
H     3.4023991   -6.3640679    4.3937930 
O     3.2455055    1.8701647    0.7700253 
N     2.0720579   -1.5655804   -0.1593361 
H     2.0769793   -0.3487952    1.5790248 
H     2.7460814   -1.9432249   -0.8661461 
H     1.7406366   -2.3756843    0.4166389 
N     3.0224224    0.8266745   -1.4140944 
C     4.3048367    1.2443059   -2.0011556 
H     2.1858135    0.5633836   -1.9824458 
C     4.0865266    2.4146107   -2.9565188 
O     3.9235071    2.1827286   -4.3192133 
O     3.9811352    3.7219878   -2.4854641 
H     3.9729354    3.7517484   -1.4741288 
C     4.9523591    0.0233375   -2.6855911 
H     4.9979327    1.6128908   -1.2083827 
C     6.3705179    0.3169112   -3.1250975 
H     4.3373013   -0.2880739   -3.5608296 
H     4.9587839   -0.8394439   -1.9871429 
C     7.4695762    0.2974207   -2.3547542 
C     7.6029621    0.0016850   -1.0363456 
C     8.8465131    0.0670855   -0.4800056 
C     9.9252005    0.4263384   -1.2402552 
C     9.7660818    0.7241261   -2.5613137 
C     8.5261443    0.6493157   -3.0887407 
H     6.7471195   -0.2728167   -0.4294730 
H     8.9802350   -0.1624263    0.5744629 
H    10.9127628    0.4803431   -0.7887797 
H    10.6092975    1.0184052   -3.1769370 
N     8.1429279    0.9335511   -4.4263989 
C     6.7285466    0.7024973   -4.3629594 
H     8.7333656    1.2245027   -5.2390601 
H     6.0390317    0.8576645   -5.1926449 
