48
Energy =
C    -0.6528670    3.2737614   -0.5797493 
C    -0.6007213    1.9485138   -0.8692171 
C     0.0628216    3.7751220    0.4621827 
C     0.8289993    2.9451984    1.2064780 
C     0.8827747    1.6188428    0.9224808 
C     0.1617182    1.1127739   -0.1135692 
H    -1.1739054    1.5605914   -1.7071649 
H     1.4001626    3.3568587    2.0312932 
H     1.5118469    0.9672205    1.5259262 
H    -1.2670171    3.9324056   -1.1823157 
C     0.2482319   -0.3568882   -0.4550682 
C     1.3227055   -0.6199821   -1.5328003 
H    -0.7451158   -0.7094910   -0.8081104 
H     0.4790649   -0.9537636    0.4573738 
C     2.7250185   -0.3291720   -1.0112387 
O     0.0297602    5.1362684    0.7858750 
H    -0.5666441    5.6905212    0.1830478 
O     3.2478351   -1.1052058    0.0192846 
N     1.2183892   -2.0045286   -2.0203521 
H     1.1450890    0.0692012   -2.3884687 
H     1.3815591   -2.6617881   -1.2180899 
H     0.2493950   -2.1842358   -2.3727262 
N     3.3473437    0.9305738   -1.3013865 
C     4.8128359    0.9363615   -1.4759637 
H     2.7494793    1.7721541   -1.4732824 
C     5.4160119    2.2805345   -1.0687399 
O     6.4574250    2.8324108   -1.8058436 
O     4.9927064    2.9505785    0.0769930 
H     4.3021731    2.4133676    0.5832607 
C     5.1779297    0.5078869   -2.9181280 
H     5.2810658    0.2066578   -0.7748104 
C     4.3711329    1.2356102   -3.9774628 
H     5.0321213   -0.5888375   -3.0036556 
H     6.2628740    0.6732569   -3.1039917 
C     3.3271241    0.7503613   -4.6732524 
C     2.7493099   -0.4794687   -4.6432764 
C     1.6794451   -0.7148693   -5.4549137 
C     1.2100743    0.2670747   -6.2815428 
C     1.8081848    1.4913147   -6.3018791 
C     2.8638025    1.7012890   -5.4879538 
H     3.1087975   -1.2665993   -3.9874481 
H     1.1967614   -1.6898568   -5.4414071 
H     0.3568012    0.0705150   -6.9267332 
H     1.4488038    2.2811083   -6.9538467 
N     3.6179436    2.8967890   -5.3581429 
C     4.5740971    2.5108578   -4.3607153 
H     3.5088318    3.8116825   -5.8556681 
H     5.3520382    3.1674980   -3.9740754 
