48
Energy =
C     3.5557469    5.3595113   -0.0458412 
C     2.4269685    4.6385528   -0.2682874 
C     4.0367659    6.1921793   -1.0079352 
C     3.3966697    6.2789538   -2.1963568 
C     2.2677827    5.5613051   -2.4238720 
C     1.7641878    4.7483524   -1.4534651 
H     2.0606587    3.9674198    0.5065734 
H     3.8042652    6.9252693   -2.9656259 
H     1.7749563    5.6396268   -3.3889600 
H     4.0733494    5.2698905    0.9032556 
C     0.4874820    3.9665385   -1.6969883 
C     0.7381757    2.6765857   -2.5115572 
H    -0.2339463    4.6146811   -2.2414075 
H    -0.0033487    3.7059337   -0.7316759 
C     1.6200792    1.6812649   -1.7727617 
O     5.1759017    6.9767863   -0.7955791 
H     5.6578858    6.7744153    0.0733285 
O     1.6073831    1.6084112   -0.3823083 
N    -0.5475058    2.0597154   -2.8807613 
H     1.2919561    2.9405359   -3.4433843 
H    -1.0919477    1.8276270   -2.0141087 
H    -1.1202867    2.7298971   -3.4461962 
N     2.5253435    0.8490140   -2.5031762 
C     3.9538484    1.2023791   -2.4153581 
H     2.1442487    0.0330481   -3.0323892 
C     4.2321280    2.5573289   -3.0573112 
O     4.9665631    3.5032964   -2.3578466 
O     3.7359430    2.8936949   -4.3187750 
H     3.3075056    2.0945527   -4.7638869 
C     4.7922172    0.0723555   -3.0482763 
H     4.2382760    1.3001393   -1.3402566 
C     6.2704692    0.2516373   -2.7752371 
H     4.6035857    0.0134932   -4.1420019 
H     4.4689299   -0.9026926   -2.6199507 
C     7.1661769    0.8978410   -3.5398462 
C     7.0054616    1.5235167   -4.7344472 
C     8.0914808    2.1173632   -5.3068070 
C     9.3087217    2.0773968   -4.6852686 
C     9.4467904    1.4447971   -3.4856766 
C     8.3573898    0.8649209   -2.9391607 
H     6.0387913    1.5677441   -5.2262244 
H     7.9850926    2.6321396   -6.2582539 
H    10.1677309    2.5578704   -5.1459785 
H    10.4035669    1.4095019   -2.9764864 
N     8.2854777    0.1699888   -1.7017852 
C     6.8974709   -0.1866666   -1.6691875 
H     9.0430326   -0.0293537   -1.0095344 
H     6.4194802   -0.7231392   -0.8530768 
