48
Energy =
C    -0.4660472   -2.4685966   -1.8546633 
C     0.7948129   -1.9731632   -1.7760438 
C    -1.0090276   -3.1259813   -0.7958793 
C    -0.2862135   -3.2798168    0.3368455 
C     0.9743528   -2.7838325    0.4219337 
C     1.5250427   -2.1284243   -0.6366055 
H     1.2102454   -1.4435632   -2.6282844 
H    -0.7314506   -3.8030181    1.1761399 
H     1.5348431   -2.9143315    1.3436350 
H    -1.0403402   -2.3344924   -2.7647935 
C     2.9304193   -1.5690963   -0.5405855 
C     2.9727184   -0.0612599   -0.1896163 
H     3.4610009   -1.7358103   -1.5011710 
H     3.5154312   -2.1356398    0.2170846 
C     2.3395268    0.8096562   -1.2733107 
O    -2.3036452   -3.6532225   -0.8462743 
H    -2.7905096   -3.4686085   -1.7162766 
O     1.1092026    1.4195533   -1.0474241 
N     2.3818751    0.1847171    1.1363688 
H     4.0401079    0.2452450   -0.1420305 
H     1.3455002    0.0269254    1.0976019 
H     2.7750643   -0.4829517    1.8389967 
N     2.8376093    0.7615608   -2.6230867 
C     4.0680338    1.5725836   -2.8174302 
H     2.0742939    1.0942397   -3.2601774 
C     3.8290924    3.0234354   -3.2770755 
O     4.8379279    3.6812551   -3.9716701 
O     2.6917493    3.7580460   -2.9493238 
H     2.0772561    3.2710938   -2.3178725 
C     4.9830447    0.8075148   -3.8026157 
H     4.6433610    1.6735314   -1.8697103 
C     4.3265440    0.5807459   -5.1529866 
H     5.2708866   -0.1663384   -3.3521765 
H     5.9358030    1.3667813   -3.9486695 
C     3.5896637   -0.4794900   -5.5259464 
C     3.2769764   -1.6088939   -4.8405665 
C     2.4889214   -2.5417797   -5.4475573 
C     2.0316396   -2.3358077   -6.7196329 
C     2.3612152   -1.1962867   -7.3916257 
C     3.1425911   -0.2893074   -6.7685583 
H     3.6412464   -1.7737525   -3.8343802 
H     2.2242043   -3.4538213   -4.9177769 
H     1.4035587   -3.0834545   -7.1979595 
H     2.0065184   -1.0156658   -8.4008687 
N     3.5887081    0.9554537   -7.2847451 
C     4.3456428    1.4577307   -6.1741121 
H     3.4179807    1.3877132   -8.2222253 
H     4.8437307    2.4267066   -6.1572784 
