48
Energy =
C     1.4370719    7.9558384    1.2672349 
C     1.3166762    7.0541604    0.2600810 
C     0.9821616    7.6543817    2.5128804 
C     0.4085094    6.4512954    2.7416770 
C     0.2860089    5.5454597    1.7386097 
C     0.7381590    5.8430882    0.4899639 
H     1.6874872    7.3102484   -0.7293865 
H     0.0486499    6.2238476    3.7391320 
H    -0.1784424    4.5841076    1.9423790 
H     1.8985798    8.9183361    1.0739851 
C     0.6187092    4.8263397   -0.6230554 
C     1.6858907    3.7063061   -0.5207870 
H     0.6828719    5.3165633   -1.6215250 
H    -0.3998904    4.3759609   -0.5841751 
C     1.4388680    2.5902440   -1.5284763 
O     1.0933613    8.5593566    3.5734249 
H     1.5257207    9.4408462    3.3190154 
O     0.3662690    2.6587162   -2.4089508 
N     3.0370975    4.2650350   -0.6895123 
H     1.6122226    3.2211028    0.4790620 
H     3.1129031    4.7608025   -1.6111197 
H     3.2426608    4.9605812    0.0647798 
N     2.1482604    1.3486000   -1.4348368 
C     3.5877555    1.3435050   -1.7728959 
H     1.6196194    0.5073622   -1.1106606 
C     3.8936031    2.0894729   -3.0764520 
O     4.9215807    3.0245959   -3.1005163 
O     3.1847916    1.8448213   -4.2516968 
H     2.3866829    1.2524328   -4.0716345 
C     4.0800311   -0.1188752   -1.8212419 
H     4.1461254    1.8738896   -0.9683098 
C     5.5867694   -0.2034189   -1.9459397 
H     3.5879045   -0.6633617   -2.6565278 
H     3.7756596   -0.6399705   -0.8864876 
C     6.3056175   -0.2956255   -3.0772565 
C     5.8956103   -0.3598601   -4.3704734 
C     6.8430289   -0.4426116   -5.3479448 
C     8.1711666   -0.4609751   -5.0233186 
C     8.5600794   -0.3945621   -3.7184802 
C     7.6039573   -0.3128273   -2.7693554 
H     4.8431030   -0.3354870   -4.6346018 
H     6.5391791   -0.4861546   -6.3909810 
H     8.9197589   -0.5221148   -5.8089601 
H     9.6092758   -0.4018038   -3.4441809 
N     7.7955604   -0.2249939   -1.3642951 
C     6.4392678   -0.1501263   -0.9072368 
H     8.6861438   -0.2222807   -0.8167306 
H     6.1472982   -0.0487491    0.1351120 
