48
Energy =
C     0.4787187   -2.3760883    1.4481728 
C     0.4457654   -1.0491038    1.1648819 
C     0.3126411   -3.2918188    0.4561176 
C     0.1114719   -2.8718651   -0.8136781 
C     0.0792560   -1.5471213   -1.1023704 
C     0.2427230   -0.6260673   -0.1126733 
H     0.5921318   -0.3282717    1.9653095 
H    -0.0186801   -3.6089973   -1.5976128 
H    -0.0630499   -1.2287847   -2.1319795 
H     0.6441304   -2.7023935    2.4692854 
C     0.2611905    0.8521336   -0.4402362 
C     1.7006298    1.4144484   -0.5046701 
H    -0.3191070    1.4053504    0.3300232 
H    -0.2473593    1.0391093   -1.4128535 
C     2.5775884    0.6288848   -1.4691773 
O     0.3488958   -4.6663649    0.7133352 
H     0.4974611   -4.8978079    1.6895891 
O     2.1803018    0.5146304   -2.8009559 
N     1.6636261    2.8392713   -0.8672885 
H     2.1715174    1.3247031    0.5012607 
H     1.2526047    2.9481294   -1.8259227 
H     1.0573201    3.3652470   -0.1957731 
N     3.4798920   -0.3508126   -0.9345398 
C     4.8084944   -0.3908281   -1.5951552 
H     2.9988544   -1.2749317   -0.9933909 
C     5.5433338    0.9519024   -1.5628177 
O     6.5863357    1.1211890   -0.6601799 
O     5.2462500    2.0017502   -2.4338148 
H     4.4175428    1.8296884   -2.9831659 
C     4.7757009   -1.0281590   -3.0137106 
H     5.4505145   -1.0494434   -0.9679773 
C     4.2488894   -2.4502405   -2.9928822 
H     5.8135270   -1.0563692   -3.4151557 
H     4.2060651   -0.3943990   -3.7206082 
C     3.0852560   -2.9075357   -3.4944713 
C     2.1051469   -2.2603725   -4.1779089 
C     1.0098656   -2.9710359   -4.5750936 
C     0.9106411   -4.3028268   -4.2893205 
C     1.9049957   -4.9340046   -3.6045834 
C     2.9787850   -4.2112106   -3.2236834 
H     2.1753879   -1.2036030   -4.4123337 
H     0.2101262   -2.4757855   -5.1221598 
H     0.0338177   -4.8626420   -4.6077879 
H     1.8394168   -5.9909451   -3.3662626 
N     4.1131336   -4.6793510   -2.5095190 
C     4.8871562   -3.4787403   -2.4048616 
H     4.3250415   -5.6446805   -2.1636845 
H     5.8490942   -3.4124132   -1.8995999 
