48
Energy =
C     0.8844665   -0.7234427    2.1732048 
C     1.7411444    0.2327887    1.7335597 
C    -0.2233758   -0.3759876    2.8802590 
C    -0.4640081    0.9270116    3.1464392 
C     0.3890924    1.8870365    2.7101360 
C     1.4942254    1.5478936    1.9890828 
H     2.6297018   -0.0674185    1.1860439 
H    -1.3476064    1.1913039    3.7165688 
H     0.1796428    2.9261618    2.9467770 
H     1.0903537   -1.7674177    1.9625577 
C     2.4516926    2.6178641    1.5006915 
C     2.0016397    3.3250775    0.1910979 
H     3.4671863    2.1863425    1.3566751 
H     2.5866605    3.3783980    2.3009420 
C     1.8235697    2.3834758   -1.0061776 
O    -1.1255524   -1.3362753    3.3488208 
H    -0.8770687   -2.2890291    3.1059470 
O     0.7996985    2.6060562   -1.9191181 
N     0.7973520    4.1435300    0.4288834 
H     2.8160164    4.0199682   -0.1233133 
H    -0.0477585    3.5316310    0.5262880 
H     0.8957350    4.7241903    1.2939907 
N     2.6556345    1.2298790   -1.2179468 
C     4.1240608    1.3377318   -1.3752186 
H     2.1766055    0.3023395   -1.2052850 
C     4.6671897    2.7620279   -1.5006653 
O     5.6203290    3.1901390   -0.5883801 
O     4.1792933    3.6841728   -2.4231321 
H     3.4590660    3.2849366   -3.0087203 
C     4.5995082    0.4061138   -2.5109293 
H     4.5841144    0.9394386   -0.4436490 
C     4.1031455    0.8211818   -3.8793550 
H     4.2505769   -0.6293942   -2.3037293 
H     5.7099236    0.3515933   -2.5057520 
C     4.7649343    1.5506163   -4.7931225 
C     6.0062517    2.0993290   -4.7392121 
C     6.4410746    2.8265096   -5.8080893 
C     5.6374619    2.9963636   -6.9013156 
C     4.3917344    2.4436461   -6.9298706 
C     3.9854361    1.7264685   -5.8612504 
H     6.6382842    1.9889280   -3.8631231 
H     7.4274581    3.2832777   -5.7847423 
H     5.9887851    3.5833479   -7.7459233 
H     3.7362866    2.5794046   -7.7831445 
N     2.7251753    1.0990667   -5.6783647 
C     2.8822263    0.5412033   -4.3677827 
H     1.9070092    1.0488770   -6.3268395 
H     2.1072007   -0.0055850   -3.8365705 
