48
Energy =
C     1.7264037    5.2298101   -3.1141735 
C     0.9319721    4.1422120   -3.2803453 
C     1.5729624    6.0290479   -2.0248731 
C     0.6202392    5.7364122   -1.1120659 
C    -0.1760209    4.6510666   -1.2728262 
C    -0.0231243    3.8425961   -2.3585914 
H     1.0775735    3.5074698   -4.1513631 
H     0.5059427    6.3801274   -0.2483832 
H    -0.9347804    4.4363781   -0.5265634 
H     2.4959727    5.4463842   -3.8476076 
C    -0.9075871    2.6268199   -2.5438734 
C    -0.4121995    1.3848604   -1.7698756 
H    -0.9811693    2.3733525   -3.6264005 
H    -1.9430227    2.8730727   -2.2230474 
C     0.9272649    0.8792199   -2.3052686 
O     2.3759797    7.1567203   -1.8208701 
H     3.1141220    7.2548718   -2.5103143 
O     0.8889011    0.1189598   -3.4695461 
N    -0.4049192    1.6512373   -0.3175198 
H    -1.1303279    0.5573822   -1.9852040 
H    -1.3335612    2.0431099   -0.0328791 
H    -0.3340628    0.7389995    0.1919499 
N     2.0792424    0.7629151   -1.4479574 
C     3.4335229    0.9228575   -2.0135772 
H     1.9380660    0.6203134   -0.4248484 
C     3.6395209    2.2899359   -2.6656123 
O     3.5491137    2.4346442   -4.0458514 
O     3.9199313    3.4205604   -1.8980538 
H     3.8303640    3.2355094   -0.9097859 
C     3.7633987   -0.2658822   -2.9481798 
H     4.1497022    0.8871104   -1.1625942 
C     5.2550905   -0.4373883   -3.1470367 
H     3.2408271   -0.1475797   -3.9226619 
H     3.3525261   -1.2003781   -2.5077652 
C     5.9832243   -0.1081186   -4.2288423 
C     5.5988111    0.4313081   -5.4152118 
C     6.5531150    0.6696153   -6.3600846 
C     7.8626803    0.3662942   -6.1118960 
C     8.2264709   -0.1774784   -4.9164756 
C     7.2647027   -0.4025346   -3.9967285 
H     4.5623625    0.6773202   -5.6221937 
H     6.2696450    1.1067912   -7.3146377 
H     8.6169238    0.5613839   -6.8700899 
H     9.2611159   -0.4236196   -4.7033988 
N     7.4333226   -0.9589992   -2.7010024 
C     6.0851697   -0.9456721   -2.2186669 
H     8.3061379   -1.2902872   -2.2300850 
H     5.7842997   -1.2942398   -1.2335866 
