48
Energy =
C     1.6042170   -2.3550162    1.6330197 
C     1.5569909   -1.0300016    1.9249034 
C     0.4752676   -3.0113059    1.2563794 
C    -0.6957034   -2.3383808    1.1814186 
C    -0.7493835   -1.0146737    1.4780911 
C     0.3791264   -0.3503968    1.8491419 
H     2.4698093   -0.5070672    2.2111730 
H    -1.5897904   -2.8740655    0.8809881 
H    -1.7000453   -0.4919244    1.4124215 
H     2.5475007   -2.8873993    1.6949036 
C     0.3327296    1.1333357    2.1609411 
C     0.6369131    2.0331790    0.9361411 
H     1.0698967    1.3671296    2.9625500 
H    -0.6584768    1.4049078    2.5857160 
C     1.9758639    1.7060135    0.2901219 
O     0.4924578   -4.3730617    0.9398126 
H     1.3990426   -4.8138203    1.0492528 
O     3.1017562    1.5219451    1.0884322 
N    -0.4738197    1.9927498   -0.0306542 
H     0.7433716    3.0801732    1.3002743 
H    -0.5952070    1.0202543   -0.3983892 
H    -1.3658514    2.2678898    0.4427642 
N     2.1534589    1.7962065   -1.1262641 
C     3.1581160    2.7575296   -1.6136111 
H     1.5354904    1.2479701   -1.7662293 
C     2.6075182    3.6560807   -2.7174463 
O     3.4753281    4.1840956   -3.6669566 
O     1.2751790    4.0690428   -2.7441135 
H     0.7422408    3.6874986   -1.9750390 
C     4.4233920    1.9775914   -2.0402682 
H     3.4492782    3.4664991   -0.8035059 
C     4.1399644    0.9443887   -3.1131575 
H     4.8548819    1.4797742   -1.1444269 
H     5.2004160    2.6874162   -2.4025093 
C     3.7585849   -0.3309782   -2.9263855 
C     3.5544046   -1.0222546   -1.7743186 
C     3.1393813   -2.3187523   -1.8610011 
C     2.9378059   -2.8996155   -3.0819376 
C     3.1499075   -2.1875191   -4.2246420 
C     3.5612531   -0.9071196   -4.1136381 
H     3.7036158   -0.5592570   -0.8027739 
H     2.9623230   -2.8928032   -0.9562579 
H     2.6021492   -3.9319933   -3.1420212 
H     2.9888728   -2.6311087   -5.2013218 
N     3.8156066    0.0056259   -5.1713283 
C     4.1778467    1.1834176   -4.4365576 
H     3.7592709   -0.1423579   -6.2052876 
H     4.4184750    2.1444200   -4.8904817 
