48
Energy =
C    -2.8613397   -0.9561488   -1.2086523 
C    -1.6831333   -1.5644019   -0.9206860 
C    -2.9999647    0.3844823   -1.0287773 
C    -1.9555734    1.1082105   -0.5653141 
C    -0.7751601    0.5048880   -0.2745094 
C    -0.6337512   -0.8386016   -0.4444925 
H    -1.5832788   -2.6353445   -1.0768870 
H    -2.0761510    2.1783126   -0.4345939 
H     0.0530534    1.1070840    0.0881503 
H    -3.6912007   -1.5439770   -1.5856173 
C     0.6874219   -1.5153300   -0.1465407 
C     1.5281238   -1.7203586   -1.4244211 
H     0.4921887   -2.5037962    0.3247989 
H     1.2673669   -0.9313429    0.6014493 
C     1.9029309   -0.3995721   -2.0808886 
O    -4.2020572    1.0414478   -1.3107021 
H    -4.9297672    0.4355809   -1.6738082 
O     1.3113288   -0.0297706   -3.2839751 
N     2.7212650   -2.5258618   -1.1064752 
H     0.9150516   -2.2683190   -2.1800528 
H     3.2328051   -2.1108980   -0.2904053 
H     2.4249289   -3.4912176   -0.8251526 
N     2.8880757    0.4618886   -1.4900246 
C     4.2099799    0.6455760   -2.1317127 
H     2.6522036    0.9340082   -0.5899158 
C     4.3719073    2.0736121   -2.6428121 
O     5.4635159    2.8228516   -2.2211765 
O     3.4681128    2.6517958   -3.5338650 
H     2.6987435    2.0271073   -3.7333455 
C     4.5007728   -0.4116277   -3.2325096 
H     4.9805442    0.5244972   -1.3367227 
C     5.9526240   -0.3908544   -3.6590820 
H     3.8405730   -0.2527799   -4.1128839 
H     4.2608566   -1.4307854   -2.8489648 
C     6.4936436    0.3160091   -4.6653854 
C     5.9066113    1.1520320   -5.5603105 
C     6.6944238    1.7613932   -6.4918814 
C     8.0416328    1.5285223   -6.5167175 
C     8.6095756    0.6853312   -5.6084836 
C     7.8090891    0.0945400   -4.6964136 
H     4.8386530    1.3465041   -5.5412870 
H     6.2479552    2.4409554   -7.2139034 
H     8.6626560    2.0218648   -7.2600262 
H     9.6770341    0.4936958   -5.6109925 
N     8.1987153   -0.8021411   -3.6654708 
C     6.9376119   -1.0625590   -3.0366635 
H     9.1491203   -1.1719857   -3.4347467 
H     6.8055372   -1.7047571   -2.1685936 
