48
Energy =
C    -2.2256683   -2.6356504   -3.8383421 
C    -1.0547628   -2.7212986   -3.1575195 
C    -2.3155797   -1.8557659   -4.9484218 
C    -1.2314884   -1.1668493   -5.3699156 
C    -0.0575276   -1.2522372   -4.6954258 
C     0.0385512   -2.0247004   -3.5779831 
H    -1.0001458   -3.3522446   -2.2749007 
H    -1.3160485   -0.5431365   -6.2528633 
H     0.8005912   -0.6873542   -5.0495917 
H    -3.0894661   -3.1936307   -3.4934118 
C     1.3499467   -2.1266006   -2.8204041 
C     1.5231848   -1.0925535   -1.6734972 
H     2.1973445   -2.0340787   -3.5345219 
H     1.4405009   -3.1491175   -2.3916860 
C     1.7967187    0.3313623   -2.1627389 
O    -3.5062530   -1.7487940   -5.6745755 
H    -4.2757787   -2.2818727   -5.2849672 
O     0.9085360    0.9392672   -3.0405715 
N     0.3928921   -1.1302429   -0.7316399 
H     2.4350536   -1.3933941   -1.1110058 
H    -0.4645391   -0.7425166   -1.1969995 
H     0.1876074   -2.1178397   -0.4540151 
N     2.7043375    1.1821002   -1.4370978 
C     4.1360892    1.1604421   -1.8492400 
H     2.5831659    0.9968971   -0.4147487 
C     4.5811082    2.5805334   -2.2039399 
O     4.6770207    2.9812217   -3.5314418 
O     4.8852667    3.5081665   -1.2075735 
H     4.6148668    3.1723307   -0.2963587 
C     4.4665898    0.1412766   -2.9810374 
H     4.7497173    0.8696970   -0.9669341 
C     5.9522613    0.0781634   -3.2833482 
H     3.8874915    0.3982836   -3.8953934 
H     4.1630209   -0.8782882   -2.6698236 
C     6.5845621    0.4979827   -4.3944152 
C     6.0920929    1.0833649   -5.5178688 
C     6.9627976    1.4120481   -6.5146072 
C     8.2978106    1.1513754   -6.3801733 
C     8.7710825    0.5616478   -5.2465493 
C     7.8908007    0.2480421   -4.2727382 
H     5.0357549    1.3062040   -5.6300596 
H     6.5921110    1.8912694   -7.4176904 
H     8.9849660    1.4201423   -7.1786097 
H     9.8277518    0.3498424   -5.1234760 
N     8.1789549   -0.3709828   -3.0272308 
C     6.8699994   -0.4455963   -2.4500457 
H     9.0982207   -0.6901309   -2.6436549 
H     6.6542491   -0.8762224   -1.4753476 
