48
Energy =
C     7.7950469    1.9994668    0.2868771 
C     6.4865894    2.3594184    0.2287675 
C     8.4085743    1.8453269    1.4899269 
C     7.7101180    2.0588646    2.6269355 
C     6.4034603    2.4204006    2.5747204 
C     5.7776545    2.5605106    1.3737501 
H     6.0205321    2.5054343   -0.7427712 
H     8.2125413    1.9398343    3.5797687 
H     5.8675406    2.5965345    3.5026659 
H     8.3524491    1.8428676   -0.6307557 
C     4.3166527    2.9623106    1.3127260 
C     3.3252589    1.7782579    1.4886363 
H     4.1048623    3.4825796    0.3449668 
H     4.1187193    3.7289769    2.0928909 
C     3.4228366    0.7486418    0.3677689 
O     9.7545795    1.4757371    1.5846672 
H    10.2062401    1.3365639    0.6877229 
O     3.8440198   -0.5541127    0.6185912 
N     3.4587669    1.1661841    2.8200966 
H     2.2902524    2.1840944    1.4135522 
H     4.3544543    0.6235791    2.8751102 
H     3.4849319    1.9022300    3.5628320 
N     2.9063896    1.0635163   -0.9307597 
C     3.7579792    0.7570829   -2.0964626 
H     1.9473618    1.4661833   -1.0306886 
C     4.1966194    2.0298468   -2.7669213 
O     4.1577196    3.2335250   -2.0797305 
O     4.8787431    1.9764317   -3.9556924 
H     4.1965463    1.4180123   -4.6652520 
C     3.0494405   -0.3386894   -2.9597301 
H     4.7378865    0.3355301   -1.7614341 
C     2.7748265   -0.1543667   -4.4575756 
H     2.0719857   -0.5572338   -2.4750931 
H     3.6286858   -1.2836540   -2.8504753 
C     1.9915170   -1.0045047   -5.1498784 
C     1.2432448   -2.0464825   -4.6860984 
C     0.5325448   -2.7940216   -5.5762554 
C     0.5817111   -2.5056700   -6.9080218 
C     1.3456340   -1.4718966   -7.3540011 
C     2.0383855   -0.7406118   -6.4523115 
H     1.2020206   -2.2978013   -3.6315187 
H    -0.0723101   -3.6266712   -5.2241297 
H     0.0162107   -3.1072051   -7.6157957 
H     1.4051886   -1.2395298   -8.4122329 
N     2.9069334    0.3341253   -6.7586027 
C     3.4404100    0.7928838   -5.4644552 
H     3.1163722    0.6960433   -7.7200042 
H     4.1179821    1.5421088   -5.9299801 
