48
Energy =
C    -2.9617343    1.0869480    0.9977163 
C    -1.7943276    0.4001227    1.0845571 
C    -2.9740581    2.3559271    0.5082315 
C    -1.8162522    2.9287338    0.1073427 
C    -0.6462212    2.2471851    0.1925310 
C    -0.6281456    0.9778183    0.6849802 
H    -1.8011271   -0.6149562    1.4727780 
H    -1.8379303    3.9395624   -0.2848493 
H     0.2741179    2.7238632   -0.1391527 
H    -3.8853549    0.6181695    1.3192978 
C     0.6758281    0.2154469    0.7648082 
C     1.1413743   -0.2832744   -0.6256209 
H     0.5943207   -0.6456136    1.4650905 
H     1.4388389    0.8966317    1.2022298 
C     2.6012740   -0.7269915   -0.5965021 
O    -4.1601747    3.0906363    0.4062623 
H    -4.9828160    2.5900389    0.7235807 
O     2.9725292   -2.0132112   -0.9749363 
N     0.2576501   -1.3587069   -1.1071658 
H     1.0997850    0.5564851   -1.3545598 
H     0.2810034   -2.1657123   -0.4395741 
H    -0.7284954   -1.0158629   -1.1732393 
N     3.6339823    0.1780842   -0.1765329 
C     4.3153426    0.9879982   -1.2011141 
H     3.8586012    0.2528377    0.8406521 
C     3.3901098    2.0665630   -1.7628315 
O     2.7136368    1.8548289   -2.9582452 
O     3.1222083    3.2342820   -1.0477371 
H     3.6153306    3.2576637   -0.1667908 
C     4.9269388    0.0624098   -2.2804663 
H     5.1534407    1.5239243   -0.7026498 
C     5.9191557    0.7917364   -3.1616790 
H     4.1235202   -0.4192781   -2.8809119 
H     5.4521855   -0.7786542   -1.7739229 
C     5.7480745    1.1929492   -4.4339761 
C     4.6824567    1.0482579   -5.2646218 
C     4.7701075    1.5549782   -6.5279693 
C     5.9086975    2.1887548   -6.9411279 
C     6.9671830    2.3204065   -6.0929204 
C     6.8560996    1.8126182   -4.8474155 
H     3.7725748    0.5500988   -4.9456452 
H     3.9272933    1.4569916   -7.2085096 
H     5.9693543    2.5911251   -7.9493716 
H     7.8777224    2.8207762   -6.4046918 
N     7.8363817    1.8430151   -3.8203391 
C     7.1497348    1.1618456   -2.7644462 
H     8.7989134    2.2516084   -3.8335476 
H     7.5725044    0.9754292   -1.7799091 
