48
Energy =
C    -2.8540633    0.5763135    0.5792763 
C    -1.6405244    1.1400426    0.8066657 
C    -3.4846142    0.7674912   -0.6104097 
C    -2.8960605    1.5236843   -1.5647087 
C    -1.6829773    2.0896941   -1.3428474 
C    -1.0483021    1.9025296   -0.1534016 
H    -1.1467494    0.9741818    1.7607763 
H    -3.4091584    1.6692919   -2.5089470 
H    -1.2250115    2.6923588   -2.1229411 
H    -3.3180963   -0.0291271    1.3503763 
C     0.3138705    2.5152931    0.0840321 
C     1.4384330    1.7350310   -0.6362922 
H     0.5393644    2.5799959    1.1729339 
H     0.2968695    3.5682989   -0.2790399 
C     2.7432001    2.5127669   -0.5922275 
O    -4.7333862    0.1975031   -0.8785460 
H    -5.1132865   -0.3439841   -0.1097653 
O     3.3503829    2.7459238    0.6385469 
N     1.6105987    0.3978735   -0.0450571 
H     1.1738607    1.6213231   -1.7126700 
H     1.8064793    0.4891906    0.9814249 
H     0.7284472   -0.1548222   -0.1517254 
N     3.1299262    3.3180267   -1.7166246 
C     4.5806728    3.4598617   -1.9634946 
H     2.3880436    3.6948728   -2.3462570 
C     4.9387910    4.7052055   -2.7716155 
O     6.1022378    5.3889198   -2.4478507 
O     4.2262170    5.1224035   -3.8983293 
H     3.4185992    4.5494460   -4.0789433 
C     5.1653702    2.1668278   -2.5831399 
H     5.0977213    3.6360374   -0.9884844 
C     4.5496069    1.8078641   -3.9208712 
H     5.0469446    1.3308841   -1.8611576 
H     6.2644099    2.2912675   -2.7140424 
C     3.5909958    0.8958137   -4.1557283 
C     2.9635782    0.0470880   -3.3013340 
C     2.0053277   -0.7856092   -3.7985577 
C     1.6964551   -0.7655516   -5.1301075 
C     2.3470597    0.0856832   -5.9728730 
C     3.2894123    0.9019052   -5.4558114 
H     3.2112321    0.0164086   -2.2458375 
H     1.4878394   -1.4714194   -3.1315666 
H     0.9328412   -1.4345591   -5.5194309 
H     2.1183153    0.1103783   -7.0330430 
N     4.0788663    1.8511544   -6.1571729 
C     4.8726693    2.3902013   -5.0905947 
H     4.0797410    2.0906496   -7.1757390 
H     5.6054890    3.1913055   -5.2060095 
