48
 energy: -9.067253278622 gnorm: 0.000554324867 xtb: 6.6.0 (2ccbbd7)
C           -1.91286102224658        1.51720786412008        0.34597499216280
C           -0.58982237297988        1.87195302136342        0.23560438459173
C           -2.48206200714922        1.28615294599910        1.59906962996370
C           -1.67216124926749        1.41692770881292        2.72718602085566
C           -0.34902399797681        1.76948747606730        2.60725062572094
C            0.20955735901679        2.00902176553583        1.36099955854375
H           -0.15141952432470        2.03861215139455       -0.73308425481297
H           -2.10874607099941        1.22998568233955        3.69200898516374
H            0.26867176591244        1.85777166151472        3.48446750526580
H           -2.52148261165450        1.41093576894640       -0.53405271158935
C            1.65565743218983        2.37012405254203        1.22409634247079
C            2.60676775793350        1.16920675857342        1.31065943812273
H            1.92079929008267        3.10565371829323        1.99024217305219
H            1.81084916489470        2.87869727880428        0.26794570742071
C            2.27200562252246        0.10271140923530        0.27492905617791
O           -3.81113539355789        0.93822570895189        1.74810156192558
H           -4.23877910732957        0.86092765465237        0.86809720564332
O            1.38775600539910       -0.67992412654497        0.56977503701998
N            4.00214007364414        1.60140179167067        1.28870833370408
H            2.44298708966878        0.67211730066756        2.28118229832572
H            4.10812315902476        2.25410293479992        0.51522624577120
H            4.22799674455395        2.12193110650705        2.12657117852971
N            2.89178896186690       -0.00495554491067       -0.95486157260323
C            3.86795937027646        0.93237610156469       -1.52264778659129
H            2.57807011805524       -0.73666741511285       -1.58978338322118
C            3.25647752448001        2.29945540214255       -1.58293170245087
O            4.01822196910437        3.37496389060655       -1.22088724641464
O            1.94135386075374        2.38769062717877       -1.97845198660427
H            1.60102063381648        1.48209835645525       -2.17081469354600
C            4.37688115254277        0.47809854050220       -2.90350796575899
H            4.72431388430354        0.93885736719647       -0.83518003304332
C            5.79389113628010        0.85257304200977       -3.21392822942698
H            3.71425744078954        0.86943032425296       -3.68151248686513
H            4.29589263586289       -0.61243391551842       -2.96589395121577
C            6.52518411235082        2.01986727450772       -2.82849471410088
C            6.21065192584187        3.15421616360757       -2.06778930093797
C            7.15709650647808        4.11432695427567       -1.86966791306205
C            8.44433329157197        3.98563501952461       -2.41520482071979
C            8.78373309403278        2.89315894208364       -3.16474960517626
C            7.81933951988225        1.89919114349102       -3.37662815604031
H            5.07895662359373        3.27882666339335       -1.61506950359231
H            6.90982004834877        4.98729364350190       -1.28894598082374
H            9.17221175114361        4.76076339180244       -2.24166553700389
H            9.76543522737740        2.78320187868799       -3.58926390252523
N            7.86652180975098        0.70869143690143       -4.07669124332993
C            6.64540943825067        0.09109896739421       -3.97697736988103
H            8.68179793323337        0.36361574947537       -4.58659600030830
H            6.39707849652616       -0.85198982806764       -4.43640585667192
