48
Energy =
C     0.6528060    3.2749997   -5.6503031 
C     0.6402285    2.8311217   -4.3684525 
C    -0.2510216    2.7993417   -6.5470734 
C    -1.1642397    1.8837814   -6.1525578 
C    -1.1797184    1.4344575   -4.8720326 
C    -0.2654375    1.8941968   -3.9722090 
H     1.3676734    3.2306473   -3.6663476 
H    -1.8835192    1.5160949   -6.8760846 
H    -1.9295049    0.7062763   -4.5758708 
H     1.3896969    4.0112139   -5.9536957 
C    -0.2889890    1.4007721   -2.5384174 
C     0.0157344   -0.1122083   -2.4125428 
H    -1.3008863    1.6082122   -2.1265668 
H     0.4274296    1.9719747   -1.9052103 
C     1.4726308   -0.4460309   -2.7092263 
O    -0.2681071    3.2385226   -7.8750832 
H     0.4608818    3.9092700   -8.0931308 
O     1.7766567   -1.1655102   -3.8601210 
N    -0.3916173   -0.5864368   -1.0758715 
H    -0.5615738   -0.6797540   -3.1805451 
H    -0.0774397    0.0850027   -0.3352561 
H    -1.4375750   -0.6220742   -1.0262755 
N     2.4776881   -0.3292485   -1.6908488 
C     3.7679468    0.3078728   -2.0164830 
H     2.2120085   -0.5642308   -0.7092232 
C     3.6225691    1.6374158   -2.7598361 
O     3.6798293    2.8204626   -2.0330780 
O     3.3954233    1.7225324   -4.1337265 
H     3.1502830    0.8287835   -4.5340110 
C     4.6830029   -0.7223242   -2.7167457 
H     4.2527484    0.5813585   -1.0516955 
C     6.1203538   -0.2502123   -2.7814788 
H     4.2963414   -0.9823494   -3.7244535 
H     4.6446576   -1.6778240   -2.1482298 
C     6.7622069    0.2769911   -3.8386415 
C     6.3286929    0.4970562   -5.1069649 
C     7.1933072    1.0563414   -6.0011096 
C     8.4655843    1.3820158   -5.6214114 
C     8.8812280    1.1499893   -4.3443527 
C     8.0071133    0.5964080   -3.4777058 
H     5.3219304    0.2421454   -5.4179656 
H     6.8663041    1.2467582   -7.0206267 
H     9.1473847    1.8296854   -6.3401166 
H     9.8866282    1.4037170   -4.0262286 
N     8.2394804    0.2782224   -2.1131382 
C     6.9673991   -0.2621381   -1.7365314 
H     9.1071374    0.4030293   -1.5429263 
H     6.7241685   -0.6184678   -0.7379374 
