48
Energy =
C     1.1692176    5.4977269    0.5618169 
C     1.5628910    4.2988530    1.0618203 
C     0.2402545    5.5536629   -0.4297624 
C    -0.2884592    4.4075276   -0.9149761 
C     0.1011063    3.2063576   -0.4186481 
C     1.0322284    3.1437784    0.5730389 
H     2.3048331    4.2711113    1.8557259 
H    -1.0274779    4.4638457   -1.7073365 
H    -0.3353134    2.2956321   -0.8250005 
H     1.5972760    6.4124749    0.9571128 
C     1.4762739    1.8018948    1.1198776 
C     2.5976401    1.1304508    0.2896861 
H     0.5973612    1.1167795    1.1557465 
H     1.8109398    1.9081362    2.1750834 
C     2.1610370    0.8308213   -1.1441789 
O    -0.1881848    6.7723650   -0.9658058 
H     0.2635375    7.5862044   -0.5632690 
O     1.0894853   -0.0347234   -1.3277850 
N     3.8528805    1.8991669    0.3797597 
H     2.7767675    0.1184323    0.7254377 
H     3.7135746    2.8873007    0.0616262 
H     4.1653859    1.9420128    1.3783845 
N     2.5841709    1.6194401   -2.2686374 
C     3.9540488    1.2658007   -2.7159300 
H     2.5218160    2.6225000   -1.9815592 
C     4.5590649    2.3841042   -3.5510676 
O     5.8192879    2.8641915   -3.2216111 
O     3.8933196    2.9318193   -4.6452772 
H     2.9927474    2.4947741   -4.7826409 
C     3.9215130   -0.0579105   -3.5250201 
H     4.6558356    1.1709331   -1.8542599 
C     4.1159465   -1.2677618   -2.6381828 
H     4.7227855   -0.0717235   -4.2994262 
H     2.9582514   -0.1370793   -4.0783591 
C     5.2654903   -1.6629795   -2.0697198 
C     6.5065094   -1.1173757   -2.1488095 
C     7.5208108   -1.7140812   -1.4595268 
C     7.2824045   -2.8335747   -0.7106660 
C     6.0274185   -3.3630848   -0.6464807 
C     5.0408424   -2.7548012   -1.3377402 
H     6.6975894   -0.2271031   -2.7431087 
H     8.5239431   -1.2965142   -1.5063501 
H     8.0966028   -3.3032045   -0.1645020 
H     5.8210242   -4.2497362   -0.0568260 
N     3.6737448   -3.1357210   -1.4005360 
C     3.1443130   -2.1178206   -2.2636947 
H     3.1861841   -3.9392424   -0.9415976 
H     2.0958850   -2.0274742   -2.5497004 
