48
 energy: -9.361537850453 gnorm: 0.000888775941 xtb: 6.6.0 (2ccbbd7)
C            4.15888578141836        4.47129924871784        4.31162315860875
C            4.03477342355557        3.50748647715287        3.33951350664245
C            4.30560596849425        5.81494029848669        3.96484015251616
C            4.32478244453922        6.14830398658348        2.61068826420287
C            4.19811887225362        5.17770565685992        1.64656899073155
C            4.04099204797616        3.84444979825629        1.99390876780565
H            3.92949862194732        2.47586262726483        3.62281764425547
H            4.44448549827723        7.18283762823332        2.34211594330966
H            4.22852386453321        5.44285976642583        0.60342036921671
H            4.14679709756292        4.19797277866249        5.35160150967379
C            3.93887507215347        2.81359957437527        0.91570566646081
C            3.09809443774729        1.57078257012419        1.26489797322047
H            4.94748802396058        2.51620433983035        0.62114279880890
H            3.44255800869890        3.35472588781595       -0.05122083396570
C            2.29384764506053        1.06016628875720        0.08693894549763
O            4.43406588406621        6.80896546333578        4.91561233743473
H            4.40538432553805        6.42002830762435        5.81605008519618
O            1.16164089795702        0.66668640245500        0.28970807917036
N            3.88428497400184        0.48839543996161        1.85879130987431
H            2.35211710679313        1.87004339214318        2.01904086284080
H            4.21231561550132       -0.15028982053509        1.14608148132493
H            4.69327011966972        0.84187012516613        2.35540953800599
N            2.83199675429371        1.04611010079354       -1.18267113507759
C            4.26296423175912        1.13662007328733       -1.49778442820402
H            2.24552808764124        0.74990277548176       -1.95914041272307
C            4.67194760866932        2.57070125553280       -1.71775116967135
O            5.67175993091798        2.81837477874222       -2.35442241099261
O            3.84152045564472        3.57110997702653       -1.07823690246705
H            2.80165992636722        3.27247466809426       -0.94619744601286
C            4.62490211849916        0.25702884146122       -2.69310472992644
H            4.82192494049335        0.76182679944902       -0.63175191384481
C            4.46859820708214       -1.19994513575708       -2.40698131638418
H            5.65834160836959        0.46709346248313       -2.98764217359155
H            4.00461577411859        0.53732613891693       -3.54913746671741
C            5.24867585898740       -2.26131781477125       -2.95456453621594
C            6.33251766686603       -2.28892780532707       -3.84903620878148
C            6.87623739707279       -3.49879170036324       -4.18200570622127
C            6.37072446778753       -4.69546831089029       -3.64809521202421
C            5.31651634560054       -4.69282910630613       -2.77609383929737
C            4.74489259835657       -3.46440246962103       -2.42129286997409
H            6.71586748385549       -1.37075537971230       -4.25727504359147
H            7.70760435541912       -3.53712828582293       -4.86622309983913
H            6.82302022505637       -5.63139185156352       -3.93170324067294
H            4.92282949186245       -5.60416159992800       -2.36307050176363
N            3.69281193491006       -3.14076865285944       -1.58209721664163
C            3.53160533546723       -1.77905676697644       -1.58752422545228
H            3.12954761293510       -3.81565195893623       -1.06155903560437
H            2.78427548991792       -1.24869036628051       -1.02239962420489
