48
 energy: -9.064915028190 gnorm: 0.000550732850 xtb: 6.6.0 (2ccbbd7)
C           -3.64048221692696       -0.59663539247495       -1.04885635364143
C           -2.38622817067289       -0.34641868985222       -1.55353632800838
C           -4.42226819362085        0.44248526456737       -0.54291690086304
C           -3.89741731566787        1.73446831519332       -0.56373998901045
C           -2.64308125084530        1.97668489831046       -1.07099313478497
C           -1.87096053878842        0.94143308333934       -1.57805903012181
H           -1.78691840407333       -1.15597612000044       -1.93383670249251
H           -4.49901684694919        2.53482332567421       -0.17148714453417
H           -2.24780040790334        2.97800902932373       -1.07492782296470
H           -4.03046273149584       -1.59863080785349       -1.03660357901994
C           -0.48548703898426        1.19319535097641       -2.08452715170755
C            0.59203676784718        0.85235780119666       -1.05268001349344
H           -0.38297424831399        2.24220868643402       -2.37679047782994
H           -0.31752800714270        0.61355000161160       -2.99824671915466
C            1.97772563542465        0.98392985658947       -1.64599121408850
O           -5.68580401579711        0.22534309818427       -0.02654771161431
H           -5.91110406258555       -0.72858711250148       -0.08086679181830
O            2.62636582215877       -0.02328659491010       -1.84726310181913
N            0.46683922175032        1.63938212973861        0.16723233463430
H            0.48062670384306       -0.20446414099682       -0.76140448366548
H            0.60184195624961        2.62214202615697       -0.02905493595146
H           -0.46071949200971        1.53809740589816        0.55963331854534
N            2.43203208682206        2.24865970882422       -1.94542270310113
C            3.84288027703229        2.50263884186121       -2.23041468588846
H            1.93312046317927        3.06741010492641       -1.59592187147802
C            4.03064675256859        3.95221328808970       -2.56716575291373
O            5.17203352997611        4.58782620328131       -2.17702424604184
O            3.03045746115246        4.56860000570377       -3.28263019509189
H            2.35623640041471        3.90317164031377       -3.55837972526114
C            4.39264471253912        1.58992693807700       -3.34470814922465
H            4.38400622854754        2.28384631124931       -1.29796295690257
C            5.79225067913093        1.11187356867534       -3.11852717087314
H            4.32506449265669        2.10312168011508       -4.30898570701653
H            3.74070399616774        0.71346989559814       -3.42525401122946
C            6.89307955207274        1.83777328441819       -2.57080971099481
C            7.03476781082006        3.14166314643375       -2.07992135471288
C            8.24288806391023        3.54649077521555       -1.59725990109576
C            9.34476786210902        2.67563170595636       -1.58287466604220
C            9.23745661853634        1.39560922118479       -2.05392665600017
C            8.00118703485062        0.96650455935092       -2.55451719058605
H            6.06491437519459        3.89614175656739       -2.11167110521264
H            8.35176704442411        4.55075276269345       -1.22297342461211
H           10.28747220463075        3.02377110243310       -1.19450284073298
H           10.07357964439531        0.71967492380465       -2.04675603976262
N            7.58638141467351       -0.24149443778101       -3.08415701271291
C            6.25824779685672       -0.14503666228356       -3.41755663723246
H            8.17841870308217       -1.06838147597066       -3.18196551844035
H            5.67129302977993       -0.94385378814197       -3.84161808356486
