48
 energy: -9.073806725184 gnorm: 0.000481498493 xtb: 6.6.0 (2ccbbd7)
C           -1.71600059001156       -2.49761509959236       -4.49213074555436
C           -1.51610997100290       -2.02777389215069       -3.21524738961598
C           -0.64394230414839       -2.63783800973462       -5.37420220925613
C            0.62817217205632       -2.28302721091322       -4.92694829862637
C            0.81824223355189       -1.81628847283490       -3.64875694013424
C           -0.24702246848339       -1.68513497859448       -2.77058900791218
H           -2.35235672934819       -1.92229338599578       -2.54559747869957
H            1.45349359643673       -2.37493706194084       -5.61010039937611
H            1.79951897836537       -1.51878609200334       -3.32309373796989
H           -2.70390803889473       -2.76160754640896       -4.82464983507009
C           -0.03709797747790       -1.14810043564258       -1.38786401413653
C            0.05562634881797        0.38449139980486       -1.32909448472659
H            0.87491395444767       -1.58456123928718       -0.96780319642784
H           -0.85523950372697       -1.49069360361517       -0.74596429344995
C            1.31532016951965        0.88357791513437       -1.99399446481378
O           -0.80961315085745       -3.11392073132476       -6.66107954267871
H           -1.75751402639657       -3.30721326348071       -6.82800749350005
O            1.29401696026229        1.06216412717441       -3.19340554767437
N           -1.07443250999882        1.03228313241406       -1.97425521785880
H            0.07081731593078        0.71405466740857       -0.27808019353012
H           -0.91102029262895        1.00404764711597       -2.97712121481433
H           -1.93904631828963        0.54318779818164       -1.77547056736513
N            2.42474870473303        1.11685377404344       -1.21220335687156
C            3.69286940115223        1.63512685775664       -1.74622479390330
H            2.34916828637456        1.10476642106997       -0.19375526976221
C            3.59795592045927        3.11582782210915       -1.97985171357407
O            4.64172362961030        3.91039883539954       -1.59946483187746
O            2.46793399070211        3.58450809549222       -2.60192440252252
H            1.92475930286635        2.79882055929527       -2.85484133174693
C            4.11581375700880        0.88224339069873       -3.01731432654628
H            4.46254407963555        1.46526105839084       -0.97847767455859
C            5.58981131494396        0.77637735564063       -3.26038533456603
H            3.62635131233401        1.33844375758904       -3.88374583228773
H            3.70715210597985       -0.13187808431933       -2.95826908321405
C            6.63850969369671        1.69138792350145       -2.92718297796700
C            6.67681973740191        2.93367150224140       -2.27830287603223
C            7.86960462770942        3.57248149892678       -2.11695215036297
C            9.06454781374156        3.00493803767865       -2.58695008344817
C            9.06400575899862        1.79450502226445       -3.22328668571608
C            7.84372233071169        1.12888364960903       -3.39824953361433
H            5.63009882962263        3.44966717149378       -1.89834189378025
H            7.89252143260375        4.53150286085184       -1.62673311552143
H            9.99243786455750        3.53406823539108       -2.44624629887991
H            9.97137671380318        1.34995557443112       -3.59088777699185
N            7.53578672300074       -0.07592718271954       -4.00054427986057
C            6.18112510439278       -0.27478301969605       -3.91803142806237
H            8.21534352773964       -0.69585798070412       -4.44511621431300
H            5.66192258151250       -1.13087078187550       -4.31776193815499
