48
Energy =
C     0.1707524    2.4603924   -5.0817283 
C    -0.4801540    1.8521507   -4.0573581 
C     0.9485065    3.5502281   -4.8465417 
C     1.0546340    4.0345604   -3.5895915 
C     0.4159749    3.4247671   -2.5600162 
C    -0.3511189    2.3235835   -2.7855570 
H    -1.0864713    0.9733378   -4.2581807 
H     1.6868668    4.8974157   -3.4078978 
H     0.5520581    3.8100935   -1.5521475 
H     0.0841053    2.0625145   -6.0861110 
C    -1.0071766    1.5978003   -1.6277414 
C    -0.3456460    0.2279273   -1.3447418 
H    -2.0830515    1.4512960   -1.8658829 
H    -0.9695258    2.2174914   -0.7028562 
C     1.1455709    0.3592878   -1.0369283 
O     1.6607315    4.1791890   -5.8753169 
H     1.4265711    3.8306800   -6.7988834 
O     1.5650348    0.6059642    0.2682979 
N    -1.0633314   -0.4580893   -0.2587092 
H    -0.4249453   -0.4080945   -2.2547060 
H    -0.9818434    0.0970115    0.6281592 
H    -2.0808968   -0.5368659   -0.4911090 
N     2.0814308    0.4742246   -2.1250935 
C     3.4489315    0.9657694   -1.8435676 
H     1.7825420    0.1329998   -3.0624801 
C     3.4866900    2.4825962   -1.7027127 
O     3.1941391    3.0714543   -0.4766465 
O     3.7938210    3.3218136   -2.7846005 
H     4.0696482    2.8207716   -3.7922609 
C     4.4348330    0.4507115   -2.9183755 
H     3.7983001    0.5633041   -0.8658643 
C     4.0432102    0.8907258   -4.3194226 
H     4.5054024   -0.6536377   -2.8457004 
H     5.4560792    0.8375615   -2.7069572 
C     3.4483507    0.1164628   -5.2382880 
C     3.0063025   -1.1689001   -5.1357655 
C     2.4091511   -1.7431760   -6.2172961 
C     2.2655077   -1.0381270   -7.3763726 
C     2.7202369    0.2422318   -7.4567758 
C     3.3071908    0.7904954   -6.3692882 
H     3.1077368   -1.7379395   -4.2175134 
H     2.0473468   -2.7668889   -6.1569298 
H     1.7923744   -1.5006110   -8.2389432 
H     2.6190954    0.8113840   -8.3749255 
N     3.8451698    2.1005137   -6.2909881 
C     4.3643518    2.2672276   -4.9119680 
H     3.8152332    2.7970269   -7.0776569 
H     3.9996231    3.3292630   -4.8327406 
