48
Energy =
C     3.9675679   -4.9287118    2.4698901 
C     4.1738796   -3.7876911    1.7645643 
C     3.0700002   -4.9482198    3.4913906 
C     2.3836085   -3.8244035    3.7993404 
C     2.5855321   -2.6807919    3.0972921 
C     3.4862581   -2.6547574    2.0770088 
H     4.8904047   -3.7892967    0.9473484 
H     1.6692413   -3.8532972    4.6148293 
H     2.0216614   -1.7884721    3.3579722 
H     4.5208829   -5.8258072    2.2139766 
C     3.6979271   -1.3848826    1.2833419 
C     2.5824921   -1.1627159    0.2346859 
H     4.6922453   -1.3937156    0.7861932 
H     3.7209312   -0.5235925    1.9913882 
C     2.6638861    0.2364351   -0.3506763 
O     2.8332918   -6.1072536    4.2376090 
H     3.3865720   -6.9056371    3.9462469 
O     2.4524764    1.3328166    0.4779839 
N     2.6347525   -2.1986953   -0.8130378 
H     1.5877653   -1.1993576    0.7384507 
H     3.6086388   -2.2857661   -1.1878154 
H     2.3726466   -3.1260948   -0.4024354 
N     2.9162485    0.4511422   -1.7442426 
C     4.0727574    1.2904626   -2.0998266 
H     2.2626899    0.0327835   -2.4458423 
C     3.8090329    2.0556742   -3.3953201 
O     3.2705247    1.3826747   -4.4872694 
O     4.1749017    3.3935040   -3.5514066 
H     4.5919048    3.7761986   -2.7157177 
C     5.3135505    0.3853734   -2.2237552 
H     4.2463350    2.0428058   -1.2958344 
C     6.5814258    1.1933504   -2.3919369 
H     5.1828301   -0.3279007   -3.0677319 
H     5.4083856   -0.2326237   -1.3054255 
C     7.1604109    1.5678410   -3.5449576 
C     6.7986227    1.3108564   -4.8286432 
C     7.5629560    1.8270100   -5.8333465 
C     8.6650814    2.5832698   -5.5446850 
C     9.0082353    2.8302110   -4.2486579 
C     8.2363827    2.3084687   -3.2721625 
H     5.9173150    0.7217689   -5.0646428 
H     7.2878272    1.6427273   -6.8693383 
H     9.2655439    2.9953932   -6.3519399 
H     9.8748319    3.4342666   -4.0023456 
N     8.4084209    2.4589461   -1.8699907 
C     7.2906065    1.7123772   -1.3743431 
H     9.1510605    2.9734431   -1.3432621 
H     7.0452076    1.6023352   -0.3206681 
