48
Energy =
C     0.7380255    7.1988390    2.1988026 
C     0.5588074    5.9394371    1.7257861 
C     1.9380284    7.5692194    2.7207291 
C     2.9520056    6.6753651    2.7643849 
C     2.7783401    5.4145229    2.2938777 
C     1.5780450    5.0377769    1.7741005 
H    -0.4054457    5.6615488    1.3083525 
H     3.9055967    6.9831284    3.1792136 
H     3.6074939    4.7124323    2.3340278 
H    -0.0803804    7.9094569    2.1577402 
C     1.3909788    3.6375822    1.2338186 
C     2.0821046    3.4413432   -0.1370549 
H     0.3095482    3.3838679    1.1492602 
H     1.8133552    2.9175517    1.9701106 
C     2.0146313    1.9863433   -0.5687702 
O     2.1550188    8.8591188    3.2165486 
H     1.3475687    9.4684423    3.1466841 
O     0.7728556    1.4430354   -0.8798658 
N     1.4752313    4.3076641   -1.1600792 
H     3.1600681    3.7024620   -0.0418256 
H     0.4387467    4.1566540   -1.1888427 
H     1.6519430    5.3119914   -0.9244813 
N     3.0600294    1.0790817   -0.1913270 
C     4.1875718    0.8749656   -1.1213452 
H     3.0182128    0.6335082    0.7519764 
C     5.1143021    2.0915489   -1.1683966 
O     4.8392462    3.1443949   -2.0334077 
O     6.1904541    2.2202955   -0.2887729 
H     6.2737258    1.4275008    0.3299926 
C     3.6552852    0.4507918   -2.5107693 
H     4.7940978    0.0280290   -0.7303938 
C     4.7557881   -0.1011014   -3.3925167 
H     3.1337596    1.2981915   -3.0071481 
H     2.8841950   -0.3406919   -2.3743855 
C     5.3915509    0.5238254   -4.3987884 
C     5.2145688    1.7709107   -4.9078047 
C     6.0057042    2.1669663   -5.9457671 
C     6.9498537    1.3208793   -6.4572419 
C     7.1089985    0.0727991   -5.9334422 
C     6.3153138   -0.2958903   -4.9059740 
H     4.4684426    2.4495389   -4.5074191 
H     5.8859456    3.1628596   -6.3656799 
H     7.5773800    1.6454317   -7.2834266 
H     7.8539112   -0.6104089   -6.3268738 
N     6.3221341   -1.5413875   -4.2232626 
C     5.2845082   -1.3305367   -3.2586116 
H     6.9222223   -2.3826799   -4.3826212 
H     4.9762401   -2.0658398   -2.5194821 
