48
Energy =
C     2.0572221    5.0898436   -0.7907618 
C     1.2742534    4.1765892   -1.4200126 
C     2.8444755    5.9297733   -1.5138143 
C     2.8588421    5.8355607   -2.8629577 
C     2.0742637    4.9280899   -3.4980211 
C     1.2645367    4.0996374   -2.7807175 
H     0.6599450    3.5014548   -0.8260822 
H     3.5162599    6.4876393   -3.4272883 
H     2.1137431    4.8611407   -4.5818805 
H     2.0522572    5.1483076    0.2926802 
C     0.3647609    3.1007100   -3.4858888 
C     1.1199737    1.8340058   -3.9545070 
H    -0.1031704    3.5944192   -4.3655566 
H    -0.4749578    2.7997810   -2.8195214 
C     1.8199769    1.1214617   -2.8100425 
O     3.6372783    6.9013567   -0.8946031 
H     3.6188758    6.8662298    0.1182412 
O     1.2456022    1.0771862   -1.5420034 
N     0.1885897    0.9247124   -4.6499521 
H     1.9350338    2.1274544   -4.6588472 
H    -0.5739659    0.6215684   -3.9953003 
H    -0.2597790    1.4127692   -5.4612633 
N     3.0921887    0.5045856   -3.0225359 
C     4.2582912    1.1627939   -2.4054028 
H     3.1322211   -0.3931267   -3.5549140 
C     4.4932858    2.5546910   -2.9939634 
O     4.2079491    2.8063894   -4.3319363 
O     4.9869924    3.6024129   -2.2225413 
H     5.2418917    3.3032242   -1.2935069 
C     5.4907365    0.2534573   -2.5847472 
H     4.0580323    1.2869216   -1.3161578 
C     6.6804559    0.7472512   -1.7910603 
H     5.7479020    0.1731872   -3.6642001 
H     5.2388649   -0.7747579   -2.2422532 
C     7.6524815    1.5726234   -2.2133461 
C     7.8399084    2.1526656   -3.4269256 
C     8.9176306    2.9712234   -3.5944694 
C     9.7821616    3.1964430   -2.5593115 
C     9.5721081    2.6066668   -1.3483754 
C     8.4988157    1.8005599   -1.2072638 
H     7.1464722    1.9900457   -4.2471644 
H     9.0830987    3.4539573   -4.5543120 
H    10.6354283    3.8545356   -2.7004825 
H    10.2438827    2.7811668   -0.5151306 
N     8.0935070    1.1087991   -0.0339950 
C     6.9046319    0.4567215   -0.4975139 
H     8.5422222    1.0852722    0.9099779 
H     6.2703569   -0.1745142    0.1198119 
