48
Energy =
C     3.4651451   -0.2428079    2.9844796 
C     2.8025216    0.7217818    2.2971813 
C     2.8971025   -1.4602311    3.1720311 
C     1.6700887   -1.7144349    2.6837871 
C     1.0034570   -0.7698716    2.0136774 
C     1.5642427    0.4652355    1.7801154 
H     3.2805697    1.6944526    2.1555570 
H     1.2021763   -2.6685670    2.8394512 
H    -0.0720182   -0.9496646    1.6704799 
H     4.4614708   -0.0378774    3.3842642 
C     0.8418636    1.6037275    1.0323056 
C    -0.2775549    1.2385770    0.0030495 
H     1.6106924    2.1882793    0.4714576 
H     0.4331305    2.3198698    1.7836131 
C     0.1792285    0.2684914   -1.0763062 
O     3.5442808   -2.4665627    3.8763254 
H     4.4770843   -2.2341653    4.2226941 
O    -0.5273708   -0.9154551   -1.2489534 
N    -1.5295943    0.7874989    0.6587541 
H    -0.5198088    2.1806968   -0.5485816 
H    -1.6005373   -0.2734877    0.7399793 
H    -1.6273567    1.1897515    1.6185091 
N     1.2036132    0.6257922   -2.0190147 
C     2.1321541   -0.5043430   -2.2712732 
H     0.6906726    0.8495649   -2.9052628 
C     2.7457113   -1.0121180   -0.9628970 
O     3.7813268   -0.3113198   -0.3687012 
O     2.1321012   -2.0217179   -0.2151655 
H     1.4688925   -2.5516387   -0.7729707 
C     3.2200466   -0.0324416   -3.2707915 
H     1.5726532   -1.3508080   -2.7359034 
C     4.0910904   -1.1748971   -3.7725056 
H     3.8443215    0.7562430   -2.7941206 
H     2.7512820    0.4860383   -4.1395948 
C     5.3371268   -1.4829802   -3.3625696 
C     6.1348648   -0.8726803   -2.4463770 
C     7.3773185   -1.3873597   -2.2200826 
C     7.8047388   -2.4888282   -2.9063388 
C     6.9933089   -3.0825800   -3.8252608 
C     5.7668344   -2.5569225   -4.0303475 
H     5.8164285    0.0093643   -1.9007801 
H     8.0363153   -0.9160191   -1.4925467 
H     8.8002902   -2.8897817   -2.7218637 
H     7.3260449   -3.9540151   -4.3815888 
N     4.7835824   -3.0151925   -4.9467087 
C     3.7279179   -2.0650184   -4.7210907 
H     4.8551662   -3.8422786   -5.5917341 
H     2.7763962   -2.0549118   -5.2645206 
