48
Energy =
C     0.2459555    3.2729260    2.3378321 
C     0.5243400    3.0355382    1.0316504 
C     0.6926655    4.4093370    2.9357311 
C     1.4124401    5.3029849    2.2196168 
C     1.6943749    5.0705943    0.9123895 
C     1.2495607    3.9342406    0.3098319 
H     0.1706915    2.1165786    0.5704630 
H     1.7626746    6.2053937    2.7087833 
H     2.2822669    5.7972336    0.3579222 
H    -0.3298448    2.5488688    2.9038247 
C     1.6036558    3.6384671   -1.1309703 
C     2.7315052    2.5845636   -1.2269825 
H     1.8970417    4.5650034   -1.6750624 
H     0.6939993    3.2617639   -1.6515796 
C     2.9129704    2.0619430   -2.6402434 
O     0.4310120    4.6803594    4.2826068 
H    -0.1354646    3.9761600    4.7426760 
O     2.8341935    2.9317588   -3.7204007 
N     3.9997065    3.1212056   -0.7090334 
H     2.4286250    1.7092105   -0.6211097 
H     4.2222456    4.0296611   -1.1815259 
H     3.9116529    3.3037971    0.3182353 
N     3.1585890    0.6703632   -2.8876961 
C     4.4596357    0.1190684   -2.4593108 
H     2.3787811    0.0793778   -3.2521140 
C     5.3408939   -0.1932517   -3.6715992 
O     5.8140476   -1.4855569   -3.8804131 
O     5.7197457    0.8045875   -4.5688893 
H     5.2447527    1.6761977   -4.3759161 
C     4.2294456   -1.1300364   -1.5742009 
H     5.0319834    0.8663398   -1.8647291 
C     3.4226261   -0.8202390   -0.3333880 
H     5.2097234   -1.5577024   -1.2656260 
H     3.7201636   -1.9198045   -2.1715500 
C     3.8478208   -0.1726346    0.7638494 
C     5.0742144    0.3292621    1.0580160 
C     5.2333694    1.0034669    2.2329596 
C     4.1756626    1.1676119    3.0843095 
C     2.9534635    0.6531426    2.7687494 
C     2.8234645   -0.0178043    1.6051955 
H     5.9118640    0.2102000    0.3771565 
H     6.2055427    1.4167045    2.4911246 
H     4.3089837    1.7119322    4.0161854 
H     2.1031149    0.7817554    3.4296914 
N     1.6375218   -0.5916028    1.0728321 
C     2.1120500   -1.0849425   -0.1871891 
H     0.6759763   -0.6245052    1.4829210 
H     1.4874341   -1.5773763   -0.9293049 
