48
 energy: -9.292140517564 gnorm: 0.000889653352 xtb: 6.6.0 (2ccbbd7)
C           -2.81937244827755        1.57001135040233        2.18618122460530
C           -1.57551281748648        1.61096922950931        1.60179148647072
C           -3.97336286308723        1.65659683890304        1.40704906110622
C           -3.82931164086759        1.78159414380792        0.02562792004936
C           -2.58245719641117        1.82044334762642       -0.55118565901697
C           -1.43748622974620        1.74153272373047        0.22759238903991
H           -0.69182832914778        1.54035393998291        2.21246767301910
H           -4.71870393646752        1.84615752820477       -0.57516194940036
H           -2.48374730851643        1.91155131532514       -1.61928146611584
H           -2.91522364683511        1.47083716042028        3.25250539303798
C           -0.08473677836850        1.74723498453481       -0.41205238970798
C            0.31720662181241        0.37975896919515       -0.96889706687542
H            0.66582334333494        2.07493561983771        0.31281378181652
H           -0.06191859164876        2.49147786637610       -1.21513062214610
C            1.61249835998749        0.47826218820457       -1.74175812812606
O           -5.23832646638723        1.62013362397239        1.96242392008270
H           -5.17485968691325        1.53297520604173        2.93797287661558
O            1.56908852347570        0.49474836805979       -2.95631566563980
N            0.38890467783213       -0.64931527651486        0.06007353484915
H           -0.44910656915465        0.05373180113471       -1.69055182018350
H            1.12093017632667       -0.43136889761029        0.72293154930146
H           -0.48079467966561       -0.69637732757993        0.57554808677111
N            2.78531419679005        0.59016865240982       -1.02887219555599
C            4.09721487040344        0.75343869080515       -1.66267921672570
H            2.76539550479974        0.77606509043020       -0.02525151784182
C            4.29629664931571        2.19676103285655       -2.07842770830839
O            5.28397823377007        2.78569538005162       -1.69690061436187
O            3.33871856845518        2.69886034392891       -2.89210535633525
H            2.64156358455639        2.00756564509695       -3.00299917114765
C            4.27276774516681       -0.20762679753293       -2.83965967147512
H            4.86868474675258        0.52352663724916       -0.91299215120608
C            5.64694810521397       -0.23622945557961       -3.42279684012087
H            3.55402571035276        0.05745155915213       -3.61954442400251
H            3.99154447537351       -1.21579632321875       -2.51944119740152
C            6.26260350187541        0.76232566863967       -4.23741341569750
C            5.84498975952379        2.02422543434559       -4.69702776424839
C            6.69303791945413        2.75632054203280       -5.47951635389403
C            7.96284490666390        2.26901058406736       -5.82700243570757
C            8.39645785745757        1.04888856723403       -5.38669876635740
C            7.54284482026467        0.28538866255775       -4.58027371302455
H            4.89618469800455        2.42027469732734       -4.38111205717124
H            6.38939984751144        3.73137123901246       -5.82334962784993
H            8.60885494074039        2.87266557377733       -6.44279330705295
H            9.37085535464396        0.67115092995613       -5.63960975524655
N            7.69755905298600       -0.95428328306308       -3.98705198187713
C            6.55496177100193       -1.25784726049650       -3.29047075721950
H            8.53510211213693       -1.53473045956527       -4.06172458842599
H            6.39717056210320       -2.16605175289186       -2.73137475893477
