48
Energy =
C    -2.9086363    0.4310369    0.6198293 
C    -1.7507159    1.1292577    0.5060571 
C    -3.0386669   -0.5252390    1.5777838 
C    -2.0078891   -0.7751080    2.4170153 
C    -0.8474461   -0.0798197    2.3079757 
C    -0.7130547    0.8794216    1.3515305 
H    -1.6598964    1.8887970   -0.2665783 
H    -2.1244270   -1.5403479    3.1767316 
H    -0.0294801   -0.2998200    2.9891261 
H    -3.7295882    0.6384583   -0.0579392 
C     0.5852548    1.6419306    1.2057478 
C     1.4287445    1.1308004    0.0148132 
H     1.1880518    1.5919124    2.1410459 
H     0.3500179    2.7209376    1.0626715 
C     2.5760091    2.0763478   -0.2830768 
O    -4.2165051   -1.2660594    1.7190632 
H    -4.9475692   -1.0077774    1.0653811 
O     3.3874381    2.5389307    0.7471567 
N     1.9340027   -0.2274300    0.2739086 
H     0.7915681    1.1188024   -0.8979340 
H     2.5000244   -0.2270644    1.1568812 
H     1.1315876   -0.8842717    0.4150136 
N     2.9478880    2.3600517   -1.6354452 
C     4.2522431    1.8428986   -2.0915435 
H     2.2938811    2.8860541   -2.2589374 
C     5.0762555    2.9281542   -2.7784447 
O     5.9343064    2.5915385   -3.8194254 
O     5.0786589    4.2461742   -2.3250899 
H     4.5229429    4.3543594   -1.4869169 
C     4.0300246    0.5865533   -2.9720228 
H     4.8863723    1.5507834   -1.2204977 
C     3.0036545    0.8005973   -4.0714938 
H     3.7220601   -0.2502157   -2.3118035 
H     4.9919308    0.2657157   -3.4319495 
C     1.7423893    0.3324993   -4.1066496 
C     1.0765966   -0.4608308   -3.2265941 
C    -0.2200805   -0.7864355   -3.4951188 
C    -0.8260671   -0.3268768   -4.6307694 
C    -0.1379090    0.4595521   -5.5055911 
C     1.1431953    0.7698411   -5.2163183 
H     1.5510385   -0.8382372   -2.3281444 
H    -0.7731355   -1.4183050   -2.8037529 
H    -1.8593093   -0.5929791   -4.8399890 
H    -0.6020370    0.8297717   -6.4136255 
N     2.0244444    1.5687564   -5.9900609 
C     3.2073468    1.5377785   -5.1797680 
H     1.8583111    2.0494447   -6.9044278 
H     4.1347809    2.0494203   -5.4325088 
