48
Energy =
C    -3.3479543   -0.5078773    0.0501037 
C    -2.6956336    0.1645739   -0.9318427 
C    -3.1920765   -1.8528769    0.1773903 
C    -2.3835276   -2.5159415   -0.6801947 
C    -1.7285783   -1.8485321   -1.6636758 
C    -1.8834259   -0.5028760   -1.7972307 
H    -2.8270684    1.2399812   -1.0184996 
H    -2.2675962   -3.5882846   -0.5681255 
H    -1.0821591   -2.3982637   -2.3425925 
H    -3.9933974    0.0331287    0.7336103 
C    -1.1383957    0.2436711   -2.8815722 
C     0.3439414    0.4873045   -2.5110682 
H    -1.6371107    1.2142031   -3.1055024 
H    -1.1961943   -0.3482909   -3.8232025 
C     1.1190617    1.0229952   -3.7009199 
O    -3.8478203   -2.5757098    1.1792987 
H    -4.4399555   -2.0078437    1.7753803 
O     0.7172584    2.1989249   -4.3286215 
N     0.4546966    1.4061527   -1.3657988 
H     0.8195022   -0.4854603   -2.2447575 
H    -0.0797194    2.2858170   -1.5653266 
H     0.0274260    0.9658463   -0.5174432 
N     2.3494771    0.4022531   -4.0971713 
C     3.5878433    1.1556911   -3.8316614 
H     2.3266573   -0.5187620   -4.5923448 
C     4.6481649    0.8776135   -4.9002014 
O     4.8644951   -0.4273046   -5.3336065 
O     5.4731672    1.8895851   -5.3981971 
H     5.2824589    2.7846488   -4.9715335 
C     4.0855608    0.7848480   -2.4207790 
H     3.3706882    2.2490608   -3.8657797 
C     5.2435986    1.6563014   -1.9876433 
H     4.3612500   -0.2918455   -2.3805280 
H     3.2546452    0.9183616   -1.6924798 
C     6.5539654    1.4004585   -2.1353450 
C     7.1784183    0.3167370   -2.6647797 
C     8.5415759    0.3107765   -2.7073715 
C     9.2527974    1.3750081   -2.2262516 
C     8.6047251    2.4532161   -1.7010260 
C     7.2556040    2.4354611   -1.6694247 
H     6.6187197   -0.5270621   -3.0566343 
H     9.0645138   -0.5426246   -3.1326020 
H    10.3390743    1.3637258   -2.2680181 
H     9.1536019    3.3079971   -1.3207711 
N     6.3951838    3.4554601   -1.1818254 
C     5.1100271    2.8727360   -1.4308717 
H     6.6353508    4.3805947   -0.7575743 
H     4.1619285    3.3584749   -1.2113112 
