48
Energy =
C     1.8752764   -2.3184953    0.6944714 
C     1.8911062   -1.2222889    1.4966254 
C     0.7204605   -2.7055335    0.0904833 
C    -0.4119347   -1.9958313    0.2960226 
C    -0.4012376   -0.8987734    1.0946972 
C     0.7527563   -0.5016063    1.6977152 
H     2.8225628   -0.9160295    1.9736492 
H    -1.3271531   -2.3173865   -0.1896294 
H    -1.3217029   -0.3401006    1.2439851 
H     2.7877013   -2.8835623    0.5335505 
C     0.7741029    0.7396501    2.5686738 
C     1.1446759    2.0323373    1.7966504 
H     1.5004751    0.6005950    3.4020075 
H    -0.2133914    0.8764489    3.0616893 
C     2.5354774    1.9688521    1.1722148 
O     0.6704649   -3.8240804   -0.7458743 
H     1.5595478   -4.2994879   -0.8574807 
O     3.5677974    1.3551828    1.8812773 
N     0.0993757    2.3719012    0.8142887 
H     1.2072369    2.8616719    2.5375547 
H     0.0372412    1.6323178    0.0767449 
H    -0.8308315    2.4303358    1.2909344 
N     2.8504461    2.7263540   -0.0083034 
C     4.2016224    2.5695233   -0.5864909 
H     2.1135293    3.3342940   -0.4300128 
C     4.5721292    3.7069694   -1.5322807 
O     5.8490653    4.2482447   -1.4572798 
O     3.7073869    4.1905115   -2.5158434 
H     2.8525891    3.6585641   -2.5610434 
C     4.3621433    1.1757483   -1.2418248 
H     4.9531338    2.6495426    0.2354311 
C     3.3416892    0.8949201   -2.3229107 
H     4.2741801    0.3974139   -0.4520606 
H     5.3914941    1.0684452   -1.6481178 
C     3.4744722    1.1145300   -3.6407281 
C     4.5154738    1.6393561   -4.3369508 
C     4.3908952    1.7707235   -5.6887923 
C     3.2417139    1.3790911   -6.3182171 
C     2.2083267    0.8572593   -5.5982856 
C     2.3553482    0.7389053   -4.2619979 
H     5.4227945    1.9684165   -3.8383283 
H     5.2071120    2.1972670   -6.2667463 
H     3.1492954    1.4903946   -7.3954157 
H     1.2878714    0.5470617   -6.0805801 
N     1.4034397    0.2382418   -3.3345509 
C     2.1206018    0.3800094   -2.1020747 
H     0.4381432   -0.1237918   -3.5079626 
H     1.7297323    0.1063076   -1.1271891 
