48
 energy: -9.067425820950 gnorm: 0.000964640979 xtb: 6.6.0 (2ccbbd7)
C           -1.31948119216037       -2.98942186814465       -2.84382180816383
C           -0.77024895888644       -2.71285521034418       -1.61414873150923
C           -0.88193392283836       -2.31809986404225       -3.98584602064336
C            0.12560627191507       -1.36580586064445       -3.84275040324735
C            0.66736920480046       -1.09811331814022       -2.60972541919841
C            0.22592237187407       -1.75667027454821       -1.47040168387775
H           -1.11292975359686       -3.24556274253627       -0.74337013223059
H            0.46599732293432       -0.84803092127383       -4.72179148566084
H            1.43269340685310       -0.35014564130900       -2.51618343457956
H           -2.09233201550122       -3.73095850751254       -2.93794565343955
C            0.82853487946375       -1.50651555798848       -0.11670260302373
C            1.28068125298005       -0.06111559596684        0.14766719006254
H            1.68849150893481       -2.17282047296909        0.00957129949750
H            0.10212440477979       -1.79868410775542        0.64859772566763
C            2.52974218089124        0.25970093313318       -0.64445069805731
O           -1.41488515391247       -2.57048789046602       -5.23615541532629
H           -2.10677708329008       -3.26378266928296       -5.17238481102476
O            3.49682092474318       -0.46536480192732       -0.52454512042981
N            0.21476366667923        0.90212404308042       -0.09973919390310
H            1.56768194907490        0.03893598119146        1.20747408750401
H           -0.09341599752558        0.82896019818000       -1.05976414150285
H           -0.58883335397602        0.69557080906319        0.47958964508474
N            2.51140472419525        1.35215057069890       -1.48326925274553
C            3.74747859581344        1.86582871559036       -2.06928316420225
H            1.77807033557535        2.06202756672704       -1.36850073458663
C            3.44346503733976        3.06159235680318       -2.92117359558193
O            4.31704456183973        4.10897042614445       -2.93326268308261
O            2.29325168447807        3.02813218361332       -3.67356811561335
H            1.83263146597396        2.16555404381684       -3.54407765362928
C            4.50263243185198        0.78501869018934       -2.86641766625802
H            4.37511112264632        2.18366568382349       -1.22399958578087
C            5.99471110976492        0.86444172786076       -2.77860861855222
H            4.18901519254596        0.81468311400216       -3.91442083209735
H            4.19367715436753       -0.19590678048030       -2.48883490216175
C            6.82257782111551        2.02665956309437       -2.70985341472859
C            6.55396029076186        3.40102698706545       -2.69434561901226
C            7.58742170722256        4.28447334441566       -2.60338745090427
C            8.91631871068968        3.83753721025985       -2.52364994185066
C            9.21204475499165        2.50205510794646       -2.53880729010827
C            8.15864729736503        1.58309033517484       -2.63319029847069
H            5.39053126486401        3.78120446093502       -2.79811523054443
H            7.37884670947683        5.34121333434549       -2.59603048925412
H            9.71290783977811        4.55930040235977       -2.45087763145459
H           10.22548955202426        2.14776358601223       -2.47940451107539
N            8.14014457736495        0.20130134372446       -2.66716106511919
C            6.83691120765809       -0.22036382728387       -2.75437638638502
H            8.96865511432399       -0.39408070443127       -2.61559259179677
H            6.52597929737130       -1.25218228888976       -2.78611887493502
