48
Energy =
C    -1.9083198   -2.7266369    0.6903930 
C    -1.6298505   -1.5127373    1.2365485 
C    -1.4830500   -3.0264637   -0.5691865 
C    -0.7837505   -2.1079578   -1.2747554 
C    -0.5114947   -0.9001695   -0.7245559 
C    -0.9145892   -0.5955916    0.5302332 
H    -1.9862473   -1.2837794    2.2372539 
H    -0.4468904   -2.3491275   -2.2768168 
H     0.1023557   -0.0360875   -1.2359138 
H    -2.4750240   -3.4546620    1.2607960 
C    -0.6300302    0.7933076    1.0848247 
C     0.8008365    1.3265204    0.7597561 
H    -0.7632536    0.7763286    2.1893361 
H    -1.3913222    1.4949464    0.6770442 
C     1.0115073    1.6821673   -0.7331337 
O    -1.7511589   -4.2659852   -1.1581568 
H    -2.2820025   -4.8963744   -0.5674053 
O     0.6763654    0.7636434   -1.7285247 
N     1.0982677    2.4705560    1.6400544 
H     1.5373329    0.5118827    0.9660519 
H     0.3105806    3.1637110    1.6231370 
H     1.1910391    2.1401926    2.6306221 
N     1.7129303    2.8669121   -1.1413302 
C     3.1591586    2.7938094   -0.8171708 
H     1.2611209    3.6698098   -0.6481490 
C     3.8098118    4.1715714   -0.7777851 
O     4.8197267    4.4072780    0.1450590 
O     3.4495921    5.1973541   -1.6502322 
H     2.8113098    4.8677205   -2.3606872 
C     3.8842081    1.8488474   -1.8071863 
H     3.3152103    2.4057134    0.2166638 
C     3.8184743    2.3371404   -3.2387629 
H     3.4283789    0.8349598   -1.7573395 
H     4.9442447    1.7197694   -1.4976053 
C     4.7133305    3.1128394   -3.8722191 
C     5.8786436    3.6462509   -3.4227128 
C     6.6062065    4.4253430   -4.2735778 
C     6.1637154    4.6584177   -5.5463110 
C     4.9880472    4.1169547   -5.9740946 
C     4.2866412    3.3494519   -5.1136712 
H     6.2234996    3.4805641   -2.4061640 
H     7.5374374    4.8712505   -3.9333539 
H     6.7466722    5.2847532   -6.2162504 
H     4.6173603    4.2990746   -6.9766975 
N     3.0381168    2.7160514   -5.3507960 
C     2.8029497    2.0878346   -4.0833000 
H     2.4496937    2.7096822   -6.2144648 
H     1.9145817    1.5097004   -3.8343763 
