48
Energy =
C    -0.8796588   -4.9788626   -0.3054950 
C    -0.5034589   -4.5234225   -1.5302112 
C    -1.0853520   -4.1034942    0.7186087 
C    -0.9148964   -2.7777774    0.5086083 
C    -0.5426147   -2.3313000   -0.7152361 
C    -0.3201723   -3.1908676   -1.7348117 
H    -0.3535324   -5.2313032   -2.3405747 
H    -1.0760343   -2.0837492    1.3254743 
H    -0.3389206   -1.2068348   -0.9992539 
H    -1.0190438   -6.0428153   -0.1485119 
C     0.0424781   -2.6385556   -3.1054769 
C     1.0629927   -1.4594159   -3.1021630 
H    -0.8952982   -2.3027406   -3.5986331 
H     0.4614845   -3.4511988   -3.7374369 
C     0.5430416   -0.1550303   -2.4641218 
O    -1.4705623   -4.5401148    1.9904908 
H    -1.5776343   -5.5455542    2.0638550 
O    -0.1542076   -0.1502651   -1.2520387 
N     2.3452739   -1.8809101   -2.5147995 
H     1.2489289   -1.2079340   -4.1701031 
H     2.2027622   -2.1236915   -1.5048094 
H     2.6760882   -2.7549157   -2.9877642 
N     1.0404444    1.1003067   -2.9379848 
C     2.1485260    1.5832229   -2.0715866 
H     0.2196178    1.7492194   -2.9099728 
C     1.9195473    3.0090283   -1.5591997 
O     2.8444095    4.0138242   -1.8135668 
O     0.8086285    3.3181574   -0.7755309 
H     0.2429203    2.4981463   -0.5920470 
C     3.4901482    1.3905323   -2.8184112 
H     2.2290788    0.9840201   -1.1306521 
C     3.5486570    2.0982945   -4.1620464 
H     3.6333795    0.2992835   -2.9911329 
H     4.3286717    1.7046053   -2.1628034 
C     4.2841552    3.1770545   -4.4907444 
C     5.1310546    3.9260468   -3.7362076 
C     5.7700759    4.9778249   -4.3245954 
C     5.5620397    5.2613746   -5.6452440 
C     4.7116693    4.4963970   -6.3854492 
C     4.0878542    3.4639204   -5.7803434 
H     5.2898994    3.7185959   -2.6826044 
H     6.4422593    5.5990680   -3.7370233 
H     6.0730535    6.1034227   -6.1058276 
H     4.5352285    4.7086619   -7.4346410 
N     3.1809857    2.5482433   -6.3750326 
C     2.8833578    1.6968129   -5.2615379 
H     2.8341140    2.5031895   -7.3607635 
H     2.2208503    0.8360545   -5.3092923 
