48
Energy =
C    -4.3917728   -0.8608910   -1.3860966 
C    -3.1638219   -1.2096273   -1.8470864 
C    -4.5177803   -0.2216084   -0.1923889 
C    -3.4123112    0.0654746    0.5316964 
C    -2.1819611   -0.2805389    0.0755436 
C    -2.0506627   -0.9240257   -1.1165809 
H    -3.0794761   -1.7156325   -2.8053781 
H    -3.5260659    0.5771351    1.4809615 
H    -1.3051235   -0.0392680    0.6704958 
H    -5.2723361   -1.0934478   -1.9751193 
C    -0.6778466   -1.2959260   -1.6318973 
C     0.0708453   -0.0879687   -2.2426623 
H    -0.7452895   -2.1122262   -2.3864694 
H    -0.0824857   -1.7143533   -0.7896658 
C     1.5149938   -0.4545150   -2.5524470 
O    -5.7681409    0.1515804    0.3115238 
H    -6.5454262   -0.0976620   -0.2902313 
O     1.7366574   -1.5751206   -3.3386857 
N    -0.6065193    0.3906248   -3.4575693 
H     0.0921929    0.7393719   -1.4968791 
H    -0.6982791   -0.3959016   -4.1440340 
H    -1.5679945    0.7292678   -3.2219003 
N     2.5591770    0.4952201   -2.2326532 
C     4.0122290    0.2825018   -2.5171960 
H     2.4529003    0.7168072   -1.2157862 
C     4.5846959    1.5418199   -3.1532305 
O     5.7877763    2.0512292   -2.6779218 
O     3.9816647    2.1545948   -4.2511696 
H     3.1054466    1.7063847   -4.4834450 
C     4.4366266   -0.9611901   -3.3605639 
H     4.5421951    0.2206827   -1.5399521 
C     4.6529060   -2.2076761   -2.5175956 
H     5.4188951   -0.7576490   -3.8448308 
H     3.7679619   -1.1313222   -4.2286895 
C     5.6449343   -2.4022027   -1.6293908 
C     6.6623964   -1.5775078   -1.2639030 
C     7.5606324   -2.0244953   -0.3403785 
C     7.4385522   -3.2778827    0.1917060 
C     6.4198635   -4.0940187   -0.2005182 
C     5.5406825   -3.6273471   -1.1116463 
H     6.7778260   -0.5872969   -1.6972166 
H     8.3824082   -1.3823331   -0.0312430 
H     8.1616829   -3.6284805    0.9239693 
H     6.3162084   -5.0961140    0.2017832 
N     4.4397987   -4.3241190   -1.6731359 
C     3.9280720   -3.3410592   -2.5840843 
H     4.0975937   -5.2933702   -1.4800898 
H     3.1019847   -3.5207115   -3.2670177 
