48
 energy: -9.072353035232 gnorm: 0.000325447840 xtb: 6.6.0 (2ccbbd7)
C           -1.74095182007005        0.00890604611683       -2.29780098574598
C           -0.57198475605218       -0.61157780177284       -1.92828147647878
C           -2.84887256682936       -0.00363867475395       -1.45106794351515
C           -2.73187751350251       -0.65975392854849       -0.22671379806909
C           -1.55617209138283       -1.27414199988313        0.13408040757963
C           -0.45471718950621       -1.26780884698166       -0.71095704467178
H            0.27202599668486       -0.58870354312817       -2.59288797157072
H           -3.58344443537870       -0.66663198204396        0.42983588693770
H           -1.47950214116642       -1.76555187833104        1.08889468449239
H           -1.80958716934489        0.51598711906767       -3.24356637252838
C            0.82637994199691       -1.91277741327257       -0.25713628250552
C            1.78799410600279       -2.36409820135134       -1.36910880513123
H            0.57622233494648       -2.78130775786651        0.36075980163624
H            1.35370493806017       -1.22273479850149        0.40778087862569
C            2.48987457848866       -1.19295346776695       -2.02425806457775
O           -4.03985432057552        0.61035608255507       -1.78979464819782
H           -3.95620674896842        1.04356767482430       -2.66648433544168
O            2.19079362981203       -0.88945442651769       -3.16269311549691
N            2.76320605620338       -3.33963904369411       -0.89287655690942
H            1.20273934132156       -2.86217753612473       -2.15833984469188
H            3.36017795729040       -2.92140416760772       -0.19185756949199
H            2.30174995015494       -4.13148321081764       -0.46250798610578
N            3.41906276131420       -0.50168841048243       -1.28112667921766
C            4.23346724901475        0.60339415766666       -1.81081223902731
H            3.56754144552626       -0.72566245341110       -0.29589793202176
C            3.44352016374521        1.88039320643293       -1.82069058929105
O            4.03428454112341        3.02366368554458       -1.36453615615311
O            2.17168317339278        1.81984722033707       -2.33027855117726
H            2.05094218447680        0.90083341252252       -2.67560744246462
C            4.79881171186569        0.26979340710915       -3.19988607016549
H            5.08176620655127        0.74141616452529       -1.12367908031166
C            6.11497783750623        0.90136747726216       -3.53606500136230
H            4.05663751627594        0.52824727867987       -3.96186802989202
H            4.90944408467292       -0.81832349023479       -3.26655306969193
C            6.65864861377543        2.15716990833437       -3.11497176353383
C            6.20233539962086        3.18608701928048       -2.27801455111865
C            6.98292469035025        4.28407051003015       -2.07323962853231
C            8.24078160611854        4.40286870195060       -2.68485994939574
C            8.71641027076459        3.41999289383488       -3.50802682696934
C            7.92273733694473        2.28671850528629       -3.72842890585750
H            5.08624664756265        3.11240577319757       -1.77304740240541
H            6.62371811971848        5.07533667245778       -1.43647969991034
H            8.83524657568381        5.28324464821230       -2.50511578439545
H            9.67633190147862        3.49991542088722       -3.98574002132072
N            8.13271365152875        1.15771527891075       -4.49667991296383
C            7.04044759484331        0.33645510687691       -4.37937910689917
H            8.96503242491633        0.98476286998632       -5.06333438380367
H            6.93102057852669       -0.61244651768511       -4.87928204808235
