48
Energy =
C    -3.9876152   -1.4096565   -0.2154692 
C    -2.8697020   -1.2668731   -0.9711485 
C    -3.8954642   -1.8662825    1.0620927 
C    -2.6830927   -2.1763808    1.5750727 
C    -1.5615432   -2.0350441    0.8241345 
C    -1.6489167   -1.5820741   -0.4563076 
H    -2.9600510   -0.8955522   -1.9885421 
H    -2.6228460   -2.5384352    2.5954871 
H    -0.5960339   -2.2875487    1.2546052 
H    -4.9548849   -1.1561904   -0.6353366 
C    -0.3966869   -1.4088671   -1.2873204 
C     0.3789416   -0.1155485   -0.9299481 
H    -0.6356225   -1.4124503   -2.3741539 
H     0.2617893   -2.2922376   -1.1263173 
C     1.7369103   -0.0404789   -1.6274549 
O    -5.0279005   -2.0242943    1.8679259 
H    -5.8969733   -1.7719253    1.4103246 
O     2.0900247   -1.0554751   -2.5090951 
N    -0.4279899    1.0759982   -1.2410074 
H     0.6032979   -0.1262488    0.1606572 
H    -0.7471379    1.0424065   -2.2380164 
H    -1.2785422    1.1009222   -0.6315085 
N     2.5676295    1.1294215   -1.4057468 
C     3.9744407    1.2648612   -1.9029468 
H     2.5989873    1.2336067   -0.3651204 
C     4.3208602    2.7703036   -2.0348617 
O     5.2976287    3.2034094   -2.9197512 
O     3.7482449    3.7517233   -1.2217909 
H     2.9769364    3.4152001   -0.6720140 
C     4.2647003    0.4544902   -3.2062868 
H     4.6694239    0.8846167   -1.1216994 
C     5.6610842    0.6178844   -3.7802093 
H     3.4829445    0.6805081   -3.9639837 
H     4.2093039   -0.6273502   -2.9867276 
C     6.7965132    0.0893535   -3.2930179 
C     6.9938998   -0.6958747   -2.2021961 
C     8.2630365   -1.1095747   -1.9222245 
C     9.3038908   -0.7396869   -2.7281852 
C     9.0814626    0.0444425   -3.8208827 
C     7.8172921    0.4415337   -4.0766165 
H     6.1698915   -0.9970657   -1.5628821 
H     8.4480452   -1.7372831   -1.0538642 
H    10.3127343   -1.0726852   -2.4976984 
H     9.8954255    0.3453265   -4.4716030 
N     7.3733902    1.2445001   -5.1602950 
C     5.9649858    1.3112731   -4.8936067 
H     7.9246591    1.6585375   -5.9463855 
H     5.2547220    1.9010113   -5.4706543 
