48
Energy =
C    -4.0838914    2.5361103   -2.5222772 
C    -2.7306564    2.4322282   -2.5254405 
C    -4.8534424    1.4547973   -2.8191159 
C    -4.2622139    0.2754636   -3.1167673 
C    -2.9097098    0.1658063   -3.1216017 
C    -2.1350131    1.2462635   -2.8295548 
H    -2.1295570    3.3042446   -2.2810998 
H    -4.8863716   -0.5801779   -3.3496888 
H    -2.4532835   -0.7917862   -3.3594045 
H    -4.5489818    3.4855669   -2.2801950 
C    -0.6282813    1.1184242   -2.8157809 
C    -0.1150362    0.4498375   -1.5193366 
H    -0.1436194    2.1122523   -2.9488162 
H    -0.3115211    0.5134747   -3.6959927 
C     1.3679806    0.1415516   -1.6273874 
O    -6.2503522    1.5277246   -2.8234818 
H    -6.6154581    2.4456633   -2.5945122 
O     1.7188488   -1.1562792   -1.9622117 
N    -0.4070947    1.2896777   -0.3417322 
H    -0.6109256   -0.5439987   -1.3980248 
H    -0.2052097    2.2968550   -0.5472867 
H    -1.4302131    1.2279733   -0.1225169 
N     2.3048281    1.2403510   -1.6808457 
C     3.7673476    1.0693334   -1.9207981 
H     2.1811765    1.7509827   -0.7771893 
C     4.2445873    2.2625397   -2.7501354 
O     3.4797715    2.7034332   -3.8242953 
O     5.4774784    2.8768833   -2.5159629 
H     5.9907254    2.4487419   -1.7601750 
C     4.2212750   -0.2283434   -2.6482339 
H     4.3067427    1.1834304   -0.9764107 
C     4.3560752   -1.5694962   -1.9107586 
H     5.2231790   -0.0520957   -3.1010829 
H     3.5256899   -0.3660677   -3.5085390 
C     4.5670993   -1.9051486   -0.6065479 
C     4.6788883   -1.1559256    0.5298668 
C     4.8965262   -1.7844645    1.7202984 
C     5.0034900   -3.1412002    1.7772653 
C     4.8934307   -3.8811688    0.6440827 
C     4.6762262   -3.2418864   -0.5238644 
H     4.5978146   -0.0900422    0.5525499 
H     4.9823626   -1.1995459    2.6333600 
H     5.1756022   -3.6333130    2.7313835 
H     4.9767992   -4.9624930    0.6715070 
N     4.5507224   -3.8558728   -1.7921957 
C     4.3516988   -2.7147643   -2.6247420 
H     4.6029450   -4.8681716   -2.0498961 
H     4.2138007   -2.7733949   -3.7021655 
