48
Energy =
C     2.8778791    2.6551475    4.2767689 
C     2.7404092    1.4158225    3.7415711 
C     3.7806673    3.5283915    3.7558763 
C     4.5382851    3.1552154    2.6994682 
C     4.4076737    1.9157446    2.1633329 
C     3.5077249    1.0355032    2.6823688 
H     2.0087413    0.7319433    4.1630070 
H     5.2480690    3.8632928    2.2838867 
H     5.0271549    1.6423319    1.3153295 
H     2.2619781    2.9474607    5.1202400 
C     3.3315301   -0.3385844    2.0678991 
C     2.0566566   -0.4220074    1.1968003 
H     3.2644985   -1.0889118    2.8864619 
H     4.2266932   -0.6236182    1.4749445 
C     2.0286839    0.6195052    0.0825563 
O     3.9514418    4.8100795    4.2892911 
H     3.3242607    5.0274193    5.0557778 
O     1.1793865    1.7095842    0.2182354 
N     1.8945813   -1.7898634    0.6739251 
H     1.1745688   -0.1832981    1.8376493 
H     2.7604286   -2.0856986    0.1612844 
H     1.7702375   -2.4590203    1.4694546 
N     2.5065448    0.3055220   -1.2300402 
C     3.9366999    0.5255816   -1.5116758 
H     1.8279767   -0.1146838   -1.9008112 
C     4.2470766    1.9948044   -1.7674961 
O     5.3835622    2.5489942   -1.1900505 
O     3.4778859    2.7809175   -2.6241500 
H     2.6341339    2.3047196   -2.9056639 
C     4.3799490   -0.3499332   -2.7021852 
H     4.5486298    0.2370318   -0.6316597 
C     4.2830453   -1.8213154   -2.3646403 
H     5.4404047   -0.1210061   -2.9580970 
H     3.7836982   -0.1012074   -3.6057531 
C     3.3268238   -2.6871583   -2.7432387 
C     2.2451282   -2.5031162   -3.5437357 
C     1.4101731   -3.5600611   -3.7600555 
C     1.6651634   -4.7716939   -3.1800026 
C     2.7570948   -4.9341472   -2.3806324 
C     3.5685507   -3.8743099   -2.1831819 
H     2.0387034   -1.5449744   -4.0080412 
H     0.5372294   -3.4386546   -4.3970526 
H     0.9947640   -5.6093705   -3.3565707 
H     2.9736200   -5.8882079   -1.9117819 
N     4.7408591   -3.8304920   -1.3822049 
C     5.1410557   -2.4653117   -1.5540325 
H     5.1804202   -4.5884235   -0.8098640 
H     6.0133580   -2.0158047   -1.0827469 
