48
 energy: -9.363501574564 gnorm: 0.000465920441 xtb: 6.6.0 (2ccbbd7)
C            2.80847144972509        5.58893860049048        2.98992342987371
C            2.78752455184901        4.66445754280843        1.97265135631993
C            3.91656234389453        5.69430821599078        3.83167353315627
C            4.99658102317323        4.83967563854190        3.61228710255422
C            4.96844883482883        3.91783461114906        2.59386488346811
C            3.86569988333134        3.81958700952645        1.75824494019319
H            1.92558135255066        4.58728759165693        1.33188732881073
H            5.85094425010946        4.92193640500503        4.26028153464408
H            5.80919029390632        3.26473839079553        2.43467664847929
H            1.96767492541382        6.24037479151343        3.14809459762213
C            3.81925885823694        2.79801569452264        0.67092272623389
C            2.97472853769518        1.57009377084530        1.03922981791156
H            4.83903974000394        2.49652502539697        0.42442330144454
H            3.36701194973945        3.31658000236409       -0.32751382732362
C            2.29585171567020        0.93544478333768       -0.15726603094250
O            3.96977172765384        6.61019756402620        4.86473214220734
H            3.14355884174527        7.13926895579876        4.88824375394615
O            1.10696654949735        0.69462608149017       -0.07133945516837
N            3.71243750519905        0.58569203283420        1.81895073949474
H            2.15009760979645        1.91529831483587        1.68534761329726
H            4.37595992561384        0.08756065314479        1.24132467795962
H            4.22594994047489        1.03516387561159        2.56707346082648
N            2.98451346479726        0.65649682749604       -1.31600796039329
C            4.40729051467864        0.89979205589058       -1.56940817135376
H            2.47316075867310        0.28517322037139       -2.11236179416156
C            4.67976927258978        2.35834707382046       -1.86352236905711
O            5.69337485653784        2.65772216900897       -2.45650354002817
O            3.71898158338737        3.34004047946022       -1.39425139149240
H            2.72794429256637        2.96586905146982       -1.17294801846775
C            4.89813127258588        0.01564100406400       -2.72013591600807
H            4.96076416167197        0.63147179410584       -0.66132843692017
C            4.16846553089026        0.28097291522454       -3.99256116132500
H            4.79075222567132       -1.03953790848438       -2.45112040305567
H            5.96682656256700        0.19177113838306       -2.88239078774911
C            3.18511931231414       -0.54348756418043       -4.61554566950903
C            2.63643421061958       -1.79484362468371       -4.28629567562093
C            1.67277836142514       -2.32182584637805       -5.10077822938262
C            1.23079906455085       -1.63527112335108       -6.24344508568746
C            1.74627742093984       -0.41365346540996       -6.58008142958329
C            2.73434195301833        0.14474944808006       -5.75944606912344
H            2.97188325391547       -2.31550431874184       -3.40702861851558
H            1.24140273789624       -3.27980270730763       -4.86197204103530
H            0.46936718828003       -2.07937224666970       -6.86303586739020
H            1.40959445863320        0.12138379406878       -7.44983667294886
N            3.41560488029573        1.34851353294877       -5.81884187902364
C            4.26381782308852        1.42524573264650       -4.74295707276848
H            3.25752733648614        2.07646710150218       -6.51795287243298
H            4.87298946588691        2.27629416175763       -4.48168422944624
