48
Energy =
C     1.7753226    4.2155254   -0.6511531 
C     1.5020777    3.2196089    0.2221375 
C     1.5865333    4.0293276   -1.9794305 
C     1.1487676    2.8378205   -2.4330140 
C     0.9064158    1.7906414   -1.5805531 
C     1.0358570    2.0194861   -0.2172022 
H     1.6503198    3.3948122    1.2852609 
H     1.0122023    2.7313225   -3.5047010 
H     0.3147004    0.7743407   -2.1845174 
H     2.1327383    5.1701515   -0.2804725 
C     0.7742957    0.9469600    0.8169830 
C     0.1403739   -0.3343061    0.2650009 
H     0.1157572    1.3606176    1.6121334 
H     1.7450215    0.6798825    1.2944331 
C     0.9243406   -0.8617589   -0.9257327 
O     1.8204341    5.0525079   -2.9031716 
H     2.1770695    5.9088780   -2.4930371 
O     0.7036864   -2.1854859   -1.3018574 
N     0.0805719   -1.3179270    1.3591693 
H    -0.8866468   -0.1131549   -0.1086993 
H    -0.5719029   -0.9705288    2.1005631 
H    -0.3406923   -2.2086518    1.0010791 
N     1.3320275    0.0591145   -1.9723349 
C     2.8460356    0.1725577   -2.1811675 
H     1.0596529   -0.4460588   -2.8529807 
C     3.1769870    0.8604026   -3.5077308 
O     2.5726567    0.4122370   -4.6738620 
O     4.0793710    1.9186218   -3.5901436 
H     4.3841468    2.2441757   -2.6859904 
C     3.5620663   -1.2135194   -2.1423977 
H     3.2758949    0.8086186   -1.3745476 
C     4.0797808   -1.5574429   -0.7592924 
H     4.4373209   -1.2249308   -2.8310383 
H     2.8880847   -2.0106793   -2.5274575 
C     5.1196748   -0.9795945   -0.1359947 
C     5.9528177    0.0038648   -0.5644893 
C     6.9458537    0.4216993    0.2714961 
C     7.0922693   -0.1450998    1.5074308 
C     6.2477057   -1.1353271    1.9137733 
C     5.2727540   -1.5307046    1.0686915 
H     5.8442891    0.4493568   -1.5493682 
H     7.6267486    1.2072823   -0.0483738 
H     7.8877026    0.1924551    2.1674582 
H     6.3525952   -1.5983713    2.8892680 
N     4.3011335   -2.5415741    1.2916223 
C     3.5711259   -2.4984935    0.0578747 
H     4.1593572   -3.1583062    2.1246697 
H     2.7279919   -3.1453623   -0.1731749 
