48
Energy =
C    -0.8884018    3.2904919   -1.0397242 
C    -0.6593247    2.0402024   -0.5645944 
C    -0.5439208    4.3775402   -0.2987157 
C     0.0295780    4.2052684    0.9143213 
C     0.2570661    2.9574178    1.3958258 
C    -0.0924321    1.8657968    0.6607276 
H    -0.9311591    1.1802787   -1.1714094 
H     0.3098355    5.0788078    1.4939176 
H     0.7327984    2.8391290    2.3678380 
H    -1.3446129    3.4196856   -2.0150025 
C     0.1969910    0.4726532    1.1755871 
C     1.5741426   -0.0350317    0.6959736 
H    -0.6007984   -0.2218598    0.8332152 
H     0.1654539    0.4597069    2.2896636 
C     2.7041496    0.8102063    1.2659272 
O    -0.7644011    5.6786379   -0.7616067 
H    -1.1996338    5.7279098   -1.6760454 
O     2.9098367    0.8523958    2.6412609 
N     1.7420594   -1.4496885    1.0637249 
H     1.6280393    0.0448830   -0.4130802 
H     1.6969835   -1.5473281    2.1075074 
H     0.9676284   -2.0208194    0.6531653 
N     3.3975563    1.7529299    0.4378203 
C     4.8707224    1.6854643    0.4622847 
H     2.8502317    2.4116387   -0.1576284 
C     5.4992803    3.0485373    0.7279103 
O     6.5131694    3.1480601    1.6729229 
O     5.1693675    4.1835804   -0.0161649 
H     4.4564489    3.9940578   -0.7014755 
C     5.3973087    1.0820114   -0.8584914 
H     5.2101293    1.0550216    1.3159983 
C     4.7204924   -0.2241735   -1.2151013 
H     6.4951820    0.9162741   -0.7836315 
H     5.2443242    1.8124583   -1.6842474 
C     4.8439639   -1.4034177   -0.5844289 
C     5.5984450   -1.7427526    0.4920406 
C     5.5333650   -3.0262675    0.9513913 
C     4.7277009   -3.9411002    0.3317321 
C     3.9827896   -3.5787587   -0.7508481 
C     4.0630131   -2.3036365   -1.1848873 
H     6.2390205   -1.0176976    0.9837567 
H     6.1208041   -3.3235853    1.8175996 
H     4.6772200   -4.9609761    0.7053602 
H     3.3361604   -4.2910676   -1.2518707 
N     3.3720292   -1.7266784   -2.2838678 
C     3.8526065   -0.3775075   -2.2311246 
H     2.6968150   -2.1709195   -2.9475009 
H     3.5427953    0.4119436   -2.9119141 
