48
Energy =
C    -3.1325414   -2.1396882    0.3972383 
C    -1.8248320   -1.8072509    0.2535220 
C    -3.9653050   -1.3423650    1.1183146 
C    -3.4827333   -0.2158291    1.6904444 
C    -2.1757198    0.1215038    1.5500337 
C    -1.3371164   -0.6756326    0.8334101 
H    -1.1733448   -2.4520004   -0.3301733 
H    -4.1573168    0.4129790    2.2612520 
H    -1.8060851    1.0325133    2.0141786 
H    -3.5105882   -3.0437966   -0.0671500 
C     0.1145873   -0.2882384    0.6603628 
C     0.2995100    0.8038672   -0.4191177 
H     0.7314155   -1.1796970    0.4113259 
H     0.5021285    0.0880804    1.6341972 
C     1.7292535    1.3107240   -0.4290067 
O    -5.3181799   -1.6558855    1.2848945 
H    -5.6013652   -2.5162325    0.8290711 
O     1.9923246    2.4206716    0.0573380 
N    -0.0945863    0.3052856   -1.7467882 
H    -0.3303063    1.6885676   -0.1579700 
H     0.3277892   -0.6377432   -1.9098717 
H    -1.1342777    0.1907020   -1.7767291 
N     2.7982155    0.5300970   -0.9957173 
C     3.9056762    1.3266271   -1.5563728 
H     2.7650852   -0.5135564   -1.0164498 
C     3.7693968    2.7894944   -1.1321115 
O     4.5762310    3.7665383   -1.7072192 
O     2.9467768    3.1038764   -0.2594070 
H     2.8634310    2.5194250    0.5458523 
C     3.9117107    1.1836830   -3.0915444 
H     4.8700979    0.9700037   -1.1346996 
C     4.1768733   -0.2428228   -3.5203813 
H     4.7013534    1.8365114   -3.5278834 
H     2.9446855    1.5523780   -3.4959313 
C     3.2871390   -1.1278256   -4.0006790 
C     1.9607555   -0.9846069   -4.2565712 
C     1.2737091   -2.0573831   -4.7434044 
C     1.9145148   -3.2442650   -4.9671376 
C     3.2469978   -3.3650985   -4.7059216 
C     3.9048489   -2.2893818   -4.2247181 
H     1.4466712   -0.0444784   -4.0835226 
H     0.2114369   -1.9660206   -4.9577132 
H     1.3605153   -4.0942317   -5.3576976 
H     3.7713327   -4.2986710   -4.8791688 
N     5.2820433   -2.2073099   -3.8868737 
C     5.3740005   -0.8495659   -3.4372817 
H     6.0246322   -2.9411503   -3.9472272 
H     6.2862019   -0.3836678   -3.0708692 
