48
Energy =
C    -2.9290959   -0.9200970   -1.0315736 
C    -1.9549101   -0.0044623   -1.2638569 
C    -2.7499142   -1.8858583   -0.0908615 
C    -1.5948262   -1.9260066    0.6114542 
C    -0.6192356   -1.0111237    0.3844020 
C    -0.7880146   -0.0472256   -0.5614842 
H    -2.1152071    0.7629223   -2.0155805 
H    -1.4581221   -2.6984696    1.3582994 
H     0.2964492   -1.0568519    0.9645326 
H    -3.8512256   -0.8755717   -1.5994103 
C     0.3003480    0.9798319   -0.8160100 
C     1.4823811    0.4636157   -1.6796845 
H     0.6997523    1.3396548    0.1596104 
H    -0.1219535    1.8836853   -1.3052698 
C     2.2906251   -0.6279543   -0.9827731 
O    -3.7390183   -2.8420835    0.1751933 
H    -4.5607968   -2.7465189   -0.4092829 
O     2.1730899   -1.9608836   -1.3741741 
N     1.0487675    0.0427564   -3.0301333 
H     2.1842661    1.3214114   -1.7901148 
H     0.0139002    0.0872523   -3.1441682 
H     1.4652573    0.6899441   -3.7393761 
N     3.0340708   -0.3564448    0.2136615 
C     4.1820630    0.5810833    0.1919355 
H     2.7682816   -0.8664693    1.0827120 
C     3.7598954    2.0405032    0.2307552 
O     3.1674286    2.5458069    1.3909511 
O     3.9257732    2.8934269   -0.8750851 
H     4.4149636    2.4763908   -1.8236314 
C     5.2269306    0.2476311   -0.8937447 
H     4.7198232    0.4417738    1.1533105 
C     4.8131790    0.6080033   -2.3028187 
H     5.5192102   -0.8166427   -0.8057188 
H     6.1348449    0.8525199   -0.6897374 
C     4.6337017   -0.2631469   -3.3055609 
C     4.5392957   -1.6226580   -3.2733420 
C     4.3777869   -2.2959689   -4.4469843 
C     4.3349988   -1.6149513   -5.6283627 
C     4.4550851   -0.2583315   -5.6374557 
C     4.5988165    0.3894797   -4.4597105 
H     4.5634681   -2.1728095   -2.3388240 
H     4.2757849   -3.3779666   -4.4376857 
H     4.2088289   -2.1545355   -6.5626441 
H     4.4439674    0.3009055   -6.5654925 
N     4.8076478    1.7902202   -4.3047493 
C     4.9357174    2.0294838   -2.8472499 
H     4.7929593    2.4866180   -5.0917115 
H     4.1923848    2.8887150   -2.8409684 
