48
Energy =
C     3.9043285    2.5651605    3.5129030 
C     4.1213093    1.7284950    2.4671447 
C     3.5399053    2.0653654    4.7234511 
C     3.3881007    0.7303252    4.8771010 
C     3.5983943   -0.1112281    3.8332890 
C     3.9749551    0.3824776    2.6216970 
H     4.3931075    2.1458851    1.5008272 
H     3.0894323    0.3453642    5.8461747 
H     3.4595721   -1.1796864    3.9754803 
H     4.0153956    3.6353544    3.3761531 
C     4.1861423   -0.5537708    1.4496416 
C     2.8978560   -0.7314310    0.6111722 
H     4.5148804   -1.5476893    1.8267979 
H     5.0188562   -0.1865798    0.8138117 
C     2.4498446    0.5649568   -0.0533082 
O     3.3155548    2.8985778    5.8242632 
H     3.4121987    3.8877883    5.6208951 
O     1.5898047    1.4034466    0.6434779 
N     3.0791468   -1.8203227   -0.3645901 
H     2.0588881   -1.0012944    1.2974962 
H     3.9899222   -1.7003781   -0.8649051 
H     3.1317665   -2.7332840    0.1462398 
N     2.6568478    0.8180133   -1.4480294 
C     3.9882828    1.2858933   -1.8767243 
H     1.9173566    0.4868466   -2.1034889 
C     3.9903854    2.7886268   -2.1390938 
O     2.9041295    3.3905585   -2.7604009 
O     5.1195303    3.5681570   -1.8807038 
H     5.8736086    3.0362525   -1.4749528 
C     4.4813992    0.4925567   -3.1098753 
H     4.7258560    1.1068426   -1.0671328 
C     3.5372679    0.5514910   -4.2969913 
H     4.6636649   -0.5612571   -2.8197147 
H     5.4726109    0.8880848   -3.4259745 
C     2.6562862   -0.3899027   -4.6790232 
C     2.3711708   -1.5975177   -4.1243478 
C     1.4089723   -2.3685260   -4.7070010 
C     0.7511511   -1.9275302   -5.8213547 
C     1.0501386   -0.7112785   -6.3588983 
C     2.0070190    0.0326401   -5.7658423 
H     2.8784674   -1.9488260   -3.2318394 
H     1.1593698   -3.3365271   -4.2788895 
H    -0.0178056   -2.5462081   -6.2774307 
H     0.5323729   -0.3426148   -7.2380288 
N     2.4516431    1.3233218   -6.1551802 
C     3.4387389    1.5893661   -5.1480851 
H     2.1514315    1.9129583   -6.9657481 
H     3.9908677    2.5255456   -5.0555148 
