48
Energy =
C     0.3857830   -5.0047750   -0.9112467 
C     0.5334076   -3.9591784   -0.0585246 
C     0.3263656   -4.7898015   -2.2528904 
C     0.4092483   -3.5283094   -2.7316545 
C     0.5605258   -2.4797547   -1.8849356 
C     0.6209217   -2.6891543   -0.5409175 
H     0.5889966   -4.1479031    1.0105846 
H     0.3592374   -3.3699508   -3.8028534 
H     0.6399656   -1.4742512   -2.2912906 
H     0.3206675   -6.0132030   -0.5173527 
C     0.8327193   -1.5199417    0.3951550 
C     2.3187957   -1.0940044    0.4361851 
H     0.4756360   -1.7551457    1.4230292 
H     0.2001141   -0.6712737    0.0486784 
C     2.4705523    0.3427433    0.8994845 
O     0.1860060   -5.8448623   -3.1603216 
H     0.1123516   -6.7570993   -2.7227308 
O     1.9830422    0.7094136    2.1479665 
N     3.1049347   -2.0068776    1.2810583 
H     2.7286139   -1.1255499   -0.5919313 
H     2.7368097   -1.9887381    2.2634937 
H     3.0193565   -2.9871708    0.9250525 
N     2.7178612    1.3726627   -0.0640708 
C     4.1206054    1.7854816   -0.2526870 
H     1.9172261    1.7658727   -0.6091326 
C     4.2127707    3.2191914   -0.7480641 
O     4.5519105    4.2376207    0.1350008 
O     3.9716144    3.5298976   -2.0848201 
H     3.6935820    2.5944745   -2.6883828 
C     4.8550297    0.8081138   -1.2022115 
H     4.6467482    1.7834712    0.7316415 
C     4.0927905    0.5202282   -2.4943154 
H     5.0525060   -0.1223855   -0.6326989 
H     5.8520750    1.2258031   -1.4706191 
C     3.9302064   -0.6908140   -3.0517572 
C     4.4012703   -1.9020397   -2.6403870 
C     4.0872991   -3.0095589   -3.3687750 
C     3.3243615   -2.8989576   -4.4934258 
C     2.8710657   -1.6797477   -4.8931849 
C     3.1896576   -0.5945920   -4.1529630 
H     5.0150357   -2.0107615   -1.7526512 
H     4.4474264   -3.9864151   -3.0535837 
H     3.0776263   -3.7873741   -5.0708263 
H     2.2661292   -1.5760835   -5.7881672 
N     2.7937664    0.7380146   -4.4316972 
C     3.3808528    1.5580709   -3.3649285 
H     2.1986326    1.0546658   -5.2325485 
H     2.9957337    2.5145204   -3.7774163 
