48
 energy: -9.276243763641 gnorm: 0.000862568844 xtb: 6.6.0 (2ccbbd7)
C           -1.80174519398541        1.49209756671672        3.63185528418357
C           -0.57791556401246        1.95454364518956        3.20901214275326
C           -2.74552805222166        1.03416875920579        2.71183749029679
C           -2.40938704193416        1.05194428002213        1.35855297831042
C           -1.18507054461780        1.51864240815540        0.94461747858296
C           -0.25294850877939        1.98398534829309        1.86042735980913
H            0.14563630091039        2.29833388321007        3.92810067692278
H           -3.12805100773259        0.68026673019788        0.65017433009691
H           -0.91892019186111        1.49002041860419       -0.09845890396328
H           -2.04350133399845        1.47659329908461        4.67942892779681
C            1.08773050015930        2.47872963483249        1.40932841861859
C            2.14395049505770        1.37520868751443        1.25034668394531
H            1.44852426266338        3.23073859029898        2.11808418418132
H            0.98501472124996        3.00268379781373        0.45365585348985
C            1.81217877204066        0.49769475367436        0.05343884213368
O           -3.98617426117765        0.56905604050013        3.10355223130890
H           -4.06398442993642        0.60068210322383        4.08147128084333
O            0.90132784771792       -0.29862853489181        0.18712326550095
N            3.47702693617247        1.94886139809601        1.18517145946660
H            2.11102403870914        0.72138961661740        2.13577666464877
H            3.48402088194242        2.55116936266034        0.36931795083525
H            3.66303426540395        2.53271294640327        1.98941917446111
N            2.44100392764406        0.60900192510640       -1.18337217132389
C            3.87747095600336        0.86813497419050       -1.41371967256681
H            2.05592869071846        0.03508989303531       -1.93068625944221
C            4.16754858241831        2.35041092798835       -1.58267956281997
O            3.23885538486794        3.13039256026999       -1.60127118013583
O            5.47244494387517        2.71223657642298       -1.68218052345927
H            6.06779855460893        1.93529088470158       -1.59832917831494
C            4.34771491405852        0.08075250944600       -2.64423571752193
H            4.41138037439548        0.51735913992315       -0.51896507188656
C            3.58218899076313        0.41125606331707       -3.88477368772318
H            4.24475388895034       -0.99082618991152       -2.44516078133562
H            5.41190771130730        0.25632456968560       -2.82640425090149
C            3.45497608136353       -0.41922089963565       -5.03761293879222
C            3.94419169892570       -1.69836005791283       -5.35368333772536
C            3.62898030027465       -2.23855687712327       -6.56976434515084
C            2.83411245670497       -1.53908411816368       -7.49243667723405
C            2.34807537507237       -0.29249950661158       -7.20748996475754
C            2.65904619393001        0.27844245331021       -5.96703247591315
H            4.55261202215883       -2.23066910959764       -4.64440790348192
H            3.99540724504322       -3.21867036431386       -6.82634796391039
H            2.60388499484580       -1.99431779086708       -8.44143661142329
H            1.73817557011204        0.25016969693703       -7.90717960145472
N            2.32014137618333        1.49247732463691       -5.39670461535022
C            2.88301018656976        1.56383663282984       -4.14864463265785
H            1.74839974256112        2.21098728450551       -5.84464671298580
H            2.76998763054619        2.39404439384431       -3.46902235081420
