48
Energy =
C     0.6106161    2.5245877    4.8422441 
C     0.8584869    1.9524260    3.6367952 
C     0.8342157    3.8532099    5.0272463 
C     1.3054176    4.6004770    4.0032170 
C     1.5553112    4.0336521    2.7957223 
C     1.3290881    2.7049278    2.6044832 
H     0.6787874    0.8883283    3.5043004 
H     1.4811673    5.6585095    4.1640004 
H     1.9385320    4.6507676    1.9867922 
H     0.2348115    1.9166260    5.6580757 
C     1.6230955    2.0623642    1.2675492 
C     2.9646745    1.2926252    1.2758570 
H     1.6301890    2.8273675    0.4569501 
H     0.7929608    1.3635617    1.0165619 
C     3.1355462    0.4942958   -0.0021000 
O     0.5905118    4.4735192    6.2569880 
H     0.2374463    3.8465240    6.9715174 
O     2.9588096   -0.8835152    0.0201186 
N     4.0958422    2.2166879    1.4786702 
H     2.9518967    0.5339528    2.0957861 
H     3.9826277    3.0679634    0.8758294 
H     4.0937316    2.5519590    2.4714020 
N     3.1784154    1.1570644   -1.2667052 
C     4.4908220    1.6303365   -1.7375006 
H     2.2952099    1.2780774   -1.8121468 
C     4.4411650    3.0988322   -2.1317986 
O     3.2254014    3.7031807   -2.4238664 
O     5.6066544    3.8506575   -2.2725961 
H     6.4337841    3.3326980   -2.0160706 
C     4.9700455    0.7361744   -2.8997623 
H     5.2425196    1.5677717   -0.9159525 
C     3.9990884    0.7239245   -4.0637462 
H     5.1226252   -0.2974976   -2.5198051 
H     5.9648934    1.0813967   -3.2583998 
C     3.0253389   -0.1726489   -4.2947332 
C     2.6655842   -1.2737349   -3.5847411 
C     1.6125000   -2.0168774   -4.0299173 
C     0.9391681   -1.6522148   -5.1627362 
C     1.3129629   -0.5392438   -5.8554965 
C     2.3597451    0.1783718   -5.3967158 
H     3.1848036   -1.5593732   -2.6740721 
H     1.3034840   -2.8999166   -3.4752964 
H     0.0980294   -2.2479368   -5.5083206 
H     0.7832709   -0.2299617   -6.7501438 
N     2.8871912    1.3751193   -5.9508551 
C     3.9390581    1.6687676   -5.0196779 
H     2.5918300    1.8936500   -6.8102662 
H     4.5612713    2.5640932   -5.0490661 
