48
Energy =
C    -0.5012422    1.9427072    3.6453205 
C     0.1225668    1.4615959    2.5400231 
C    -1.8576101    1.9040795    3.7359302 
C    -2.5807083    1.3843875    2.7180065 
C    -1.9620723    0.9020259    1.6106384 
C    -0.6045551    0.9353824    1.5164795 
H     1.2068957    1.4993067    2.4800933 
H    -3.6616904    1.3611243    2.8008232 
H    -2.5608574    0.4932580    0.8010123 
H     0.0868985    2.3587770    4.4560216 
C     0.0910710    0.4124255    0.2792627 
C     0.5369008    1.5477753   -0.6733106 
H    -0.5648714   -0.2973603   -0.2742808 
H     0.9772214   -0.1834100    0.5930214 
C     1.4544361    1.0011520   -1.7618360 
O    -2.5313841    2.3912766    4.8607647 
H    -1.9193877    2.7668476    5.5766803 
O     0.9512473    0.0149167   -2.6004179 
N    -0.6311930    2.2214299   -1.2649797 
H     1.1261407    2.2992234   -0.1006714 
H    -1.2120845    1.5194195   -1.7830283 
H    -1.2262515    2.6397309   -0.5132845 
N     2.7508688    1.6139836   -1.9677358 
C     3.7708658    1.0920428   -2.9269898 
H     3.2000033    1.6705365   -1.0259049 
C     4.3817162    2.2785334   -3.6711311 
O     3.9869821    2.5681217   -4.9737673 
O     5.3377792    3.0987897   -3.0681952 
H     5.4763299    2.8694878   -2.0956807 
C     3.3188161   -0.0024843   -3.9420418 
H     4.6199416    0.6732590   -2.3458099 
C     3.3022006   -1.4179176   -3.3744002 
H     4.0420250   -0.0353431   -4.7875330 
H     2.3627703    0.3094671   -4.4093191 
C     2.3629312   -2.3664411   -3.5697472 
C     1.1687049   -2.3007743   -4.2151972 
C     0.4051633   -3.4294718   -4.2948227 
C     0.8452945   -4.5995006   -3.7432715 
C     2.0482459   -4.6473745   -3.1058680 
C     2.7802585   -3.5159129   -3.0326113 
H     0.8058034   -1.3658743   -4.6304552 
H    -0.5616736   -3.3972317   -4.7926004 
H     0.2330644   -5.4960133   -3.8108111 
H     2.4154908   -5.5699729   -2.6680156 
N     4.0647268   -3.3702737   -2.4492294 
C     4.3386196   -1.9929824   -2.7303580 
H     4.6541720   -4.0801371   -1.9553654 
H     5.2903736   -1.5137180   -2.5157115 
