48
Energy =
C    -3.3477550    2.9441741   -2.8243957 
C    -2.0453167    2.7432262   -2.5000624 
C    -4.0164850    2.0243708   -3.5704365 
C    -3.3765616    0.9075703   -3.9853374 
C    -2.0745316    0.7012911   -3.6642638 
C    -1.3995597    1.6214756   -2.9217671 
H    -1.5258124    3.4849132   -1.8986173 
H    -3.9216646    0.1802159   -4.5765460 
H    -1.5784088   -0.2043646   -4.0044392 
H    -3.8531421    3.8416692   -2.4844462 
C     0.0475120    1.3845290   -2.5550584 
C     0.1935719    0.4002710   -1.3718608 
H     0.5575167    2.3441570   -2.3198200 
H     0.5606461    0.9813499   -3.4486030 
C     1.6305252   -0.0667933   -1.2044494 
O    -5.3583661    2.2013063   -3.9234049 
H    -5.7662206    3.0601866   -3.5705633 
O     1.8905916   -1.4324036   -1.1943178 
N    -0.3148770    1.0089768   -0.1293784 
H    -0.3895429   -0.5275130   -1.5862445 
H     0.1180124    1.9503281    0.0217591 
H    -1.3513995    1.1423986   -0.1983073 
N     2.6121720    0.8252007   -0.6598015 
C     3.9196755    0.9430993   -1.3725585 
H     2.7646800    0.4835262    0.3180371 
C     4.2286734    2.3817731   -1.7799648 
O     5.4482019    2.6478898   -2.3888116 
O     3.3273036    3.4366725   -1.6329542 
H     2.5359848    3.1883219   -1.0603609 
C     4.1733895   -0.0628999   -2.5435374 
H     4.7235726    0.7234937   -0.6314986 
C     3.3036601    0.1151502   -3.7828895 
H     4.1068506   -1.0938349   -2.1422516 
H     5.2327149    0.0381663   -2.8707013 
C     2.5724104   -0.8349462   -4.4037187 
C     2.3782151   -2.1442775   -4.0897456 
C     1.5743339   -2.8960045   -4.8947225 
C     0.9894254   -2.3426680   -5.9981222 
C     1.2085944   -1.0347733   -6.3068683 
C     2.0048210   -0.3101100   -5.4940145 
H     2.8379994   -2.6021117   -3.2203053 
H     1.3985118   -3.9426839   -4.6555662 
H     0.3513114   -2.9505193   -6.6356288 
H     0.7592411   -0.5826662   -7.1853734 
N     2.3655490    1.0517550   -5.6532174 
C     3.2243486    1.2430907   -4.5215757 
H     2.0812345    1.7337202   -6.3957095 
H     3.7735650    2.1646651   -4.3366643 
