48
Energy =
C     0.4642542    2.1537499   -5.9805788 
C    -0.1673511    2.0938088   -4.7840280 
C     1.7194837    1.6590336   -6.1107404 
C     2.3480882    1.1369842   -5.0540078 
C     1.7695794    1.1323550   -3.8043447 
C     0.4560994    1.5599298   -3.6986517 
H    -1.1824266    2.4716915   -4.7010836 
H     3.3168993    0.6996247   -5.2787323 
H     2.3834931    0.4787255   -2.8212718 
H    -0.0465310    2.5779724   -6.8372964 
C    -0.2928250    1.5219733   -2.3766357 
C     0.4760373    0.8759937   -1.2103942 
H    -1.2520477    0.9769634   -2.5167313 
H    -0.5491987    2.5675038   -2.0921099 
C     1.8754861    1.4680643   -1.0874654 
O     2.4065402    1.6521002   -7.3215763 
H     1.8819120    2.0625529   -8.0879991 
O     2.2505114    2.1727701    0.0486461 
N    -0.3177470    1.0472618    0.0103630 
H     0.6069826   -0.2115563   -1.4147621 
H    -0.2278249    1.9430421    0.5486193 
H    -0.9220081    0.2574874    0.3343953 
N     2.6891460    1.5887018   -2.2754432 
C     4.1844851    1.5350300   -2.0014093 
H     2.4986914    2.6371902   -2.4520613 
C     4.9319669    2.8315849   -2.3405340 
O     5.7146215    3.4390754   -1.3710849 
O     4.8458015    3.4236040   -3.5935861 
H     4.3113958    2.8339070   -4.2074695 
C     4.8427926    0.3196705   -2.6998546 
H     4.3962571    1.4403631   -0.8997095 
C     6.2865515    0.1444702   -2.2780480 
H     4.8055841    0.4619930   -3.7963898 
H     4.3001639   -0.6221062   -2.4591301 
C     6.7318309   -0.4356250   -1.1530240 
C     6.0389204   -1.0246032   -0.1444643 
C     6.7381045   -1.5347258    0.9097744 
C     8.1027150   -1.4474144    0.9408767 
C     8.7765566   -0.8486741   -0.0821716 
C     8.0627781   -0.3541077   -1.1151948 
H     4.9554478   -1.0899580   -0.1649205 
H     6.2076843   -2.0094393    1.7316971 
H     8.6526763   -1.8525323    1.7865425 
H     9.8578989   -0.7646287   -0.0702071 
N     8.5638523    0.3169291   -2.2624931 
C     7.3456644    0.6127418   -2.9600398 
H     9.5514873    0.5294579   -2.5314783 
H     7.2841544    1.1709132   -3.8918746 
