48
Energy =
C    -2.8443281    1.4168015    0.6927604 
C    -1.7103971    1.3645055   -0.0505903 
C    -3.3713334    2.6176971    1.0520989 
C    -2.7598675    3.7593767    0.6626005 
C    -1.6256710    3.7133140   -0.0813673 
C    -1.0908063    2.5135624   -0.4385700 
H    -1.3065899    0.3967924   -0.3359041 
H    -3.1924899    4.7106258    0.9530970 
H    -1.1518590    4.6423992   -0.3887010 
H    -3.3295832    0.4957079    0.9968424 
C     0.1634667    2.4626697   -1.2821079 
C    -0.1373624    2.6939942   -2.7810309 
H     0.6862150    1.4900439   -1.1474329 
H     0.8687070    3.2445712   -0.9179310 
C     1.1443570    2.8868519   -3.5666083 
O    -4.5380994    2.7066602    1.8180870 
H    -4.9375648    1.8082032    2.0663916 
O     1.5503800    4.1679669   -3.9156394 
N    -0.9349144    1.5840551   -3.3331950 
H    -0.6995861    3.6518436   -2.9035561 
H    -0.5273395    0.6611845   -3.0523722 
H    -1.9081138    1.6259216   -2.9467303 
N     2.0350891    1.7886989   -3.7923455 
C     3.3002972    1.7844247   -3.0352717 
H     1.7410336    1.0424196   -4.4624401 
C     4.4022096    2.5634467   -3.7569247 
O     5.2246325    3.4097755   -3.0220118 
O     4.6746852    2.3766592   -5.1135947 
H     3.9696780    1.8033429   -5.5496392 
C     3.6989187    0.3186891   -2.7640295 
H     3.1566204    2.2981005   -2.0556718 
C     4.8407909    0.2202685   -1.7752980 
H     3.9633470   -0.1944651   -3.7145519 
H     2.8217210   -0.2273450   -2.3496724 
C     6.1547107    0.1775962   -2.0526139 
C     6.7956395    0.1830348   -3.2500760 
C     8.1587799    0.1413704   -3.2560886 
C     8.8539778    0.0943357   -2.0795409 
C     8.1897903    0.0903376   -0.8890879 
C     6.8409224    0.1322114   -0.9090932 
H     6.2494587    0.2289845   -4.1870133 
H     8.6947545    0.1530586   -4.2021502 
H     9.9405826    0.0662507   -2.0934035 
H     8.7261583    0.0593611    0.0530781 
N     5.9663104    0.1474462    0.2105212 
C     4.6904866    0.2119588   -0.4389434 
H     6.1968571    0.1153283    1.2299841 
H     3.7380811    0.2615082    0.0831021 
