48
Energy =
C    -3.1056067   -0.2594844   -1.2610647 
C    -2.1174638    0.4408170   -1.8735085 
C    -3.2431236   -1.5925176   -1.4924843 
C    -2.3897885   -2.2157423   -2.3363988 
C    -1.3996696   -1.5205044   -2.9512000 
C    -1.2594020   -0.1856431   -2.7251950 
H    -2.0177809    1.5049227   -1.6756882 
H    -2.5104185   -3.2789448   -2.5125368 
H    -0.7230824   -2.0387408   -3.6253907 
H    -3.7845076    0.2492549   -0.5851988 
C    -0.1440126    0.5854342   -3.3956134 
C     1.2205302    0.3630309   -2.7011517 
H    -0.3801591    1.6737276   -3.4256323 
H    -0.0796722    0.2631387   -4.4597489 
C     2.3490774    0.9561431   -3.5244783 
O    -4.2487463   -2.3441459   -0.8761500 
H    -4.8510183   -1.8031041   -0.2653618 
O     2.3477097    2.3117693   -3.8385228 
N     1.2171590    0.9332261   -1.3432902 
H     1.4255694   -0.7310364   -2.6371442 
H     0.9250391    1.9394580   -1.3839672 
H     0.5183044    0.4281037   -0.7494605 
N     3.5012451    0.1651032   -3.8467597 
C     4.7367212    0.4743410   -3.1032125 
H     3.4295769   -0.5677741   -4.5882165 
C     5.9865756    0.2116832   -3.9445166 
O     6.8886997    1.2449130   -4.1683971 
O     6.2814406   -1.0549753   -4.4564772 
H     5.5446251   -1.7144225   -4.2598602 
C     4.7376157   -0.3326008   -1.7870139 
H     4.7687403    1.5654080   -2.8637394 
C     5.8656787    0.0974018   -0.8777827 
H     4.8109880   -1.4218926   -1.9971216 
H     3.7721004   -0.1886477   -1.2550436 
C     5.8613137    1.1426327   -0.0361976 
C     4.8755529    2.0359198    0.2364825 
C     5.1324411    3.0284635    1.1359954 
C     6.3570042    3.1142391    1.7393608 
C     7.3329037    2.2082167    1.4455805 
C     7.0533921    1.2336865    0.5547167 
H     3.9048737    1.9736379   -0.2480324 
H     4.3607226    3.7575897    1.3705624 
H     6.5551501    3.9108409    2.4520433 
H     8.3118362    2.2663633    1.9089524 
N     7.9267543    0.2103689    0.0970432 
C     7.0808298   -0.4762949   -0.8365906 
H     8.9155470    0.0115466    0.3739687 
H     7.3944661   -1.3169859   -1.4544705 
