48
Energy =
C     6.7002854    0.1717126    1.3896405 
C     5.5406330    0.7609751    1.7748252 
C     6.7200475   -1.1470246    1.0584438 
C     5.5763812   -1.8669335    1.1163007 
C     4.4122113   -1.2814512    1.4932904 
C     4.3892879    0.0363254    1.8341999 
H     5.5395103    1.8182030    2.0282414 
H     5.6020875   -2.9166834    0.8498442 
H     3.4985699   -1.8721127    1.5086407 
H     7.6105020    0.7601388    1.3440624 
C     3.0882568    0.7058689    2.2208629 
C     2.4662739    1.4724436    1.0316408 
H     3.2799926    1.4104767    3.0598075 
H     2.3562382   -0.0457241    2.5971280 
C     2.1239254    0.5339750   -0.1132768 
O     7.8980331   -1.7821312    0.6502648 
H     8.7132875   -1.1785179    0.6564266 
O     1.2885707   -0.5596148    0.0912908 
N     1.2634600    2.2163109    1.4579976 
H     3.2290374    2.1877367    0.6378084 
H     1.0845135    2.1471628    2.4873772 
H     1.3755715    3.2330399    1.2330247 
N     2.4658353    0.8899548   -1.4541380 
C     3.8539843    0.6566722   -1.8908482 
H     1.7140688    1.2540715   -2.0820060 
C     4.5011690    1.9651007   -2.3255727 
O     3.7950662    2.8410432   -3.1411112 
O     5.8105729    2.2900971   -1.9665983 
H     6.2544469    1.5634470   -1.4252134 
C     3.8535609   -0.3648801   -3.0426103 
H     4.4669060    0.2492350   -1.0555640 
C     3.6266437   -1.7708126   -2.5310720 
H     4.8151629   -0.3214257   -3.5994785 
H     3.0645122   -0.1000680   -3.7820299 
C     4.5682624   -2.6759410   -2.2184773 
C     5.9219171   -2.5851555   -2.2842322 
C     6.6636937   -3.6559082   -1.8805448 
C     6.0505239   -4.7886433   -1.4220501 
C     4.6905130   -4.8550321   -1.3580737 
C     3.9782922   -3.7826895   -1.7629774 
H     6.4170001   -1.6829556   -2.6293850 
H     7.7498722   -3.6005569   -1.9068854 
H     6.6513061   -5.6339976   -1.0958205 
H     4.1878501   -5.7409627   -0.9855479 
N     2.5665676   -3.6345941   -1.7435251 
C     2.4232651   -2.2984203   -2.2465243 
H     1.8284353   -4.3153978   -1.4508612 
H     1.4768393   -1.7628806   -2.3192663 
