48
 energy: -9.073995317489 gnorm: 0.000952700654 xtb: 6.6.0 (2ccbbd7)
C           -1.59057945083696       -3.59346232314574       -3.90420872612938
C           -1.14058138097917       -3.02067374186904       -2.73777400953010
C           -1.14211216130449       -3.13202362588464       -5.14184906369011
C           -0.23033430569473       -2.07762451019968       -5.15907769051831
C            0.21213415934445       -1.51248998296231       -3.98772382649951
C           -0.23421060266631       -1.96819300671195       -2.75668347858351
H           -1.49059627451208       -3.39351530142255       -1.79037302156967
H            0.11149184066151       -1.71421341905111       -6.11177815036755
H            0.89248045290395       -0.68123219238466       -4.01951587304601
H           -2.29222542249291       -4.40766661714239       -3.87358981383616
C            0.26815906239970       -1.38333237804528       -1.46812329557171
C            0.21637896249106        0.15555552960803       -1.37000436270778
H            1.29764624798299       -1.71854901663910       -1.30364791911588
H           -0.31592557054164       -1.81232953959404       -0.64639328523439
C            1.41333476060243        0.79610019195582       -2.03242086867064
O           -1.57443436979098       -3.68575492341270       -6.33210485471818
H           -2.21466911307174       -4.40835863480780       -6.15309281314391
O            1.35169757532079        1.05473277496075       -3.21546797440575
N           -0.99267584707980        0.71931559485562       -1.95164849479011
H            0.23257890796334        0.45210116369397       -0.30854087618075
H           -0.84296553188434        0.81682948407142       -2.95187189796087
H           -1.78662360583022        0.10675049228641       -1.80594907414145
N            2.52063823644108        1.05658555454510       -1.25676332721835
C            3.74937323762074        1.67116502339101       -1.77992343209088
H            2.47634035440208        0.95433563337338       -0.24153092186291
C            3.57345922584843        3.15458502024348       -1.93488123534933
O            4.58369471212761        3.98151098675537       -1.53512046947166
O            2.40728853600884        3.59265254015022       -2.51071981906103
H            1.90405965814483        2.79130650366451       -2.79602120424309
C            4.19726276640124        1.00915562575555       -3.09359191585478
H            4.53819814726703        1.50481631846225       -1.03079078642736
C            5.67661485123458        0.95943034662562       -3.32054191021382
H            3.70712528010565        1.51038683019741       -3.93441847966306
H            3.81076290204561       -0.01586044725129       -3.10596590932668
C            6.68428310930217        1.89809595876922       -2.93184438604952
C            6.66326876664357        3.11134277333414       -2.22930403419446
C            7.82804334352840        3.78513963467483       -2.01530560970684
C            9.05200729700597        3.28244551006221       -2.48438699381037
C            9.10898780721716        2.10170264357647       -3.17209112049542
C            7.91815491993599        1.39965000379781       -3.40041162931190
H            5.59196965494447        3.56987602931573       -1.84283385264107
H            7.80572209227531        4.72094880071234       -1.48197276148686
H            9.95665739680070        3.83819097444661       -2.30101836499394
H           10.03934331631988        1.70652897849171       -3.53874356396857
N            7.66610456779648        0.20768580247615       -4.05262504675341
C            6.31845331928788       -0.04413103415101       -4.00446050209516
H            8.37634010033087       -0.36981224643511       -4.50637051929283
H            5.83908186388332       -0.90246326029000       -4.44672176189887
