48
 energy: -9.169989135610 gnorm: 0.000978791356 xtb: 6.6.0 (2ccbbd7)
C           -4.23409059477976        3.15904346511802       -1.77031445956840
C           -2.86889262040335        3.31575473890579       -1.81956071940037
C           -4.82252148910989        1.94319103942661       -2.11969584342004
C           -3.99072076219913        0.89792057079731       -2.51922030195701
C           -2.62677741782344        1.06263189059103       -2.56693516104269
C           -2.04564215091660        2.27361752126651       -2.22152185805188
H           -2.42563703753772        4.25675888634779       -1.54259589832364
H           -4.44378731421013       -0.03971541121424       -2.78677694949983
H           -1.99509806507607        0.24649285614224       -2.87228011080327
H           -4.86278918064597        3.97397146401179       -1.45963111564075
C           -0.55729668721997        2.43227087736894       -2.23078980476925
C            0.13154189828459        1.70557766631466       -1.07128958044854
H           -0.29555205053223        3.49356005090392       -2.18019695880660
H           -0.15442146480735        2.07712503350237       -3.18506883710089
C            1.60600124059523        1.92049503434017       -1.14193601949657
O           -6.19089970248796        1.75208635466625       -2.07794491572668
H           -6.63602362994971        2.57674284618496       -1.78590564016173
O            2.09387905686871        3.18087156291976       -0.76921647642125
N           -0.37423590956061        2.13642508948678        0.22567500231236
H           -0.06422518178363        0.62545137428162       -1.15413413152276
H           -0.06198366258852        3.08357262113359        0.39344807101044
H           -1.38630974689580        2.13968748265975        0.22895931775147
N            2.44811722305457        0.92428036596599       -1.60962727217066
C            3.84971032645766        1.21764198646010       -1.89637882109862
H            2.06539231828193        0.24710043302195       -2.26623381303449
C            3.94839441664499        2.62047499366424       -2.45016116889320
O            4.47021860626093        2.81572762311810       -3.54424276119216
O            3.41395022900008        3.62485683163192       -1.62132498749312
H            3.22950277950675        3.21285234124951       -0.55961167151955
C            4.48672920109820        0.19240661666260       -2.84300872319458
H            4.39154462806105        1.20141950755590       -0.94009500341129
C            4.79489568300266       -1.15087165973295       -2.25460141313526
H            5.41647902567181        0.62180382285740       -3.23364515209918
H            3.84025975918656        0.07089179241683       -3.71696753662332
C            4.29059852091130       -1.77915393905924       -1.06970087812919
C            3.36991676033379       -1.39846221988218       -0.07634551116160
C            3.11381418679114       -2.24817355864361        0.96242597021016
C            3.74861313761293       -3.49633202622633        1.05052743929965
C            4.64097336422555       -3.90046663400323        0.09684299859447
C            4.91626110405864       -3.03911153921117       -0.97308008462649
H            2.86247324991485       -0.45757599975369       -0.15181818886601
H            2.40884768975463       -1.95984487852274        1.72431993551267
H            3.52562225350591       -4.14538735832514        1.88118140573992
H            5.13111057164653       -4.85583187572643        0.15168089389280
N            5.75328445740098       -3.17675001705951       -2.06361590963775
C            5.67122126814779       -2.04046769352575       -2.82678998306852
H            6.33478667211609       -3.99491484682967       -2.25312507220378
H            6.22347256833472       -1.87227531631866       -3.73719703952946
