48
Energy =
C     3.9928114    5.0048308    0.8930922 
C     2.7140735    4.6271688    0.6369272 
C     4.6340803    5.8630873    0.0548349 
C     3.9979328    6.3180490   -1.0487216 
C     2.7194001    5.9456274   -1.3085357 
C     2.0613393    5.1103596   -0.4569318 
H     2.2176906    3.9302169    1.3102094 
H     4.5280969    6.9789669   -1.7253521 
H     2.2319945    6.3153209   -2.2063252 
H     4.5022261    4.6204562    1.7703329 
C     0.6243396    4.7115027   -0.7335606 
C     0.5236451    3.5669897   -1.7683863 
H     0.0679852    5.5994820   -1.1063826 
H     0.1156042    4.4043664    0.2086612 
C     1.1889117    2.2880843   -1.2847227 
O     5.9379290    6.3014431    0.3119160 
H     6.3829860    5.8315270    1.0924731 
O     1.1564556    1.9355233    0.0619848 
N    -0.8887284    3.3237570   -2.1102935 
H     1.0738473    3.8649182   -2.6912474 
H    -1.4192503    3.0465830   -1.2481018 
H    -1.3272688    4.1980937   -2.4849351 
N     1.9043989    1.4573259   -2.2037909 
C     3.3738609    1.4670348   -2.0815966 
H     1.3649320    0.8853429   -2.8884765 
C     3.9746479    2.8156481   -2.4593299 
O     5.0532562    3.2991030   -1.7336151 
O     3.4664576    3.5968379   -3.4983595 
H     2.8793244    3.0409905   -4.1050029 
C     3.9941842    0.2809166   -2.8573046 
H     3.6411622    1.3225433   -1.0078292 
C     3.8021972    0.3584848   -4.3583514 
H     3.5489825   -0.6655255   -2.4775682 
H     5.0811075    0.2175061   -2.6279093 
C     4.5891549    0.9924550   -5.2437548 
C     5.7234594    1.7121291   -5.0446917 
C     6.3401714    2.2646384   -6.1283990 
C     5.8233986    2.0884459   -7.3819244 
C     4.6849623    1.3599432   -7.5586683 
C     4.0917682    0.8260741   -6.4701722 
H     6.1320401    1.8626284   -4.0497099 
H     7.2439848    2.8528174   -5.9922869 
H     6.3201669    2.5334151   -8.2397353 
H     4.2614754    1.2112858   -8.5457360 
N     2.9093088    0.0406807   -6.4362481 
C     2.7946334   -0.2232091   -5.0325459 
H     2.2931432   -0.2590819   -7.2252381 
H     2.0103238   -0.8278099   -4.5842521 
