48
 energy: -9.205579199482 gnorm: 0.000624461920 xtb: 6.6.0 (2ccbbd7)
C           -3.19015055268687        3.17147934111869        1.09134582732388
C           -1.88964795954245        2.80962754297773        0.83072103707106
C           -4.09237560868387        2.24651407527375        1.61759092468007
C           -3.63869745700318        0.95286674690624        1.87266677716532
C           -2.33688067249464        0.59914532581952        1.61053425731895
C           -1.44207998710516        1.52216988441120        1.08803470894078
H           -1.20344242283073        3.52808565534442        0.41613428195266
H           -4.33444312557985        0.23995315412929        2.27766937572279
H           -2.00222707661649       -0.40510519529420        1.80650137982757
H           -3.52610924655219        4.17228212226155        0.88730057397544
C           -0.04191923921271        1.12277734831019        0.74174025172951
C            0.15892096580104        0.91379309377506       -0.76075620303273
H            0.22084944791862        0.19655845664685        1.26131481837878
H            0.65988641544527        1.87814121800029        1.11000026750224
C            1.57978132664451        0.50473595948043       -1.04737080001993
O           -5.40744680236092        2.57482392228531        1.88560056964993
H           -5.57398585907515        3.51390425037979        1.65431186279100
O            1.89510857719272       -0.64124598876060       -0.80788917093823
N           -0.71569507844316       -0.11621160726108       -1.29845583526601
H           -0.06017538714675        1.85083896482764       -1.29461376250943
H           -0.30785013211186       -1.01362311255352       -1.05560242923804
H           -1.63660836013239       -0.05869191040585       -0.88272842549526
N            2.44338099717969        1.44278311825901       -1.55975472722559
C            3.83968914518659        1.13026085833078       -1.82071683534080
H            2.19148954500980        2.43171450853486       -1.60981723780949
C            4.51966285017139        2.29545241679452       -2.51366513578375
O            5.40530218922593        2.84655258124438       -1.89411850969228
O            4.13337009409587        2.64956760130058       -3.76246533424556
H            3.21165262108527        2.23920510218107       -4.24809947328992
C            4.00329149745639       -0.14640165291045       -2.64488722795002
H            4.31743574316210        1.00035865094201       -0.83757765591993
C            3.42513804544144        0.02441876996799       -3.99540105180493
H            3.50139037381194       -0.97722391745836       -2.13766269122681
H            5.06343581562205       -0.40587154514014       -2.73056384873130
C            3.55149392006219       -0.78469715175436       -5.10652944301058
C            4.19515637178469       -2.03490753926898       -5.28876785635180
C            4.10068930258968       -2.65329563147877       -6.50523769939711
C            3.38258189785724       -2.07758698972402       -7.56418968884909
C            2.75000822649022       -0.86069725290792       -7.42688808446071
C            2.83475045367156       -0.19140660775077       -6.21091512025202
H            4.73358648869454       -2.48188226405129       -4.47231374781824
H            4.58292732838090       -3.60512454114511       -6.65401852435119
H            3.32616330996673       -2.59817151361377       -8.50558984080747
H            2.20419755674234       -0.41747031339191       -8.24028499000107
N            2.30118885813957        1.01905059623833       -5.80843239493747
C            2.58607884020901        1.18293150729566       -4.39417225577288
H            1.40786001077699        1.38610947493594       -6.14692222404311
H            2.43670720570754        2.30942991510487       -3.90780166096979
