48
Energy =
C    -1.5047207   -1.7502379    2.8308178 
C    -0.4107904   -1.2424950    2.2086263 
C    -2.2498023   -2.7132783    2.2252822 
C    -1.8945687   -3.1612193    0.9995565 
C    -0.8015753   -2.6570767    0.3727218 
C    -0.0502860   -1.6961201    0.9767266 
H     0.1745681   -0.4707240    2.7027874 
H    -2.4986587   -3.9277907    0.5269035 
H    -0.5353398   -3.0257447   -0.6141165 
H    -1.7823556   -1.3830662    3.8128872 
C     1.1579283   -1.1163881    0.2770712 
C     0.8571172    0.2582999   -0.3677118 
H     1.5415696   -1.8184120   -0.4952452 
H     1.9829935   -1.0097044    1.0189358 
C     2.1366071    0.9029078   -0.8806508 
O    -3.3833795   -3.2573194    2.8378381 
H    -3.5825366   -2.8701174    3.7538847 
O     3.1874405    1.0691748    0.0168024 
N    -0.1620924    0.1228803   -1.4263396 
H     0.4883674    0.9616411    0.4157630 
H     0.0516072   -0.7069842   -2.0253429 
H    -1.0952781   -0.0549399   -0.9844258 
N     2.1391107    1.6870070   -2.0849769 
C     3.4203878    1.7912016   -2.8142220 
H     1.2421640    2.1103064   -2.4128896 
C     3.6674795    3.2048783   -3.3213238 
O     4.8892904    3.8103142   -3.0565407 
O     2.7463026    3.8828269   -4.1221471 
H     1.9052732    3.3482780   -4.2704756 
C     3.4601471    0.7718292   -3.9756206 
H     4.2762012    1.6052098   -2.1226342 
C     3.2788229   -0.6531226   -3.5001598 
H     4.4331650    0.8488308   -4.5115632 
H     2.6679156    1.0215215   -4.7160475 
C     4.1538027   -1.3913906   -2.7987933 
C     5.4035854   -1.0848717   -2.3655000 
C     6.0896139   -2.0222812   -1.6507769 
C     5.5251030   -3.2395195   -1.3865512 
C     4.2716601   -3.5279782   -1.8381952 
C     3.6130942   -2.5841978   -2.5426691 
H     5.8578570   -0.1218529   -2.5774289 
H     7.0903349   -1.7991021   -1.2876994 
H     6.0784846   -3.9803314   -0.8146214 
H     3.8104499   -4.4893025   -1.6390823 
N     2.3093329   -2.6825459   -3.0985089 
C     2.1711326   -1.3882367   -3.6996650 
H     1.6341024   -3.4803980   -3.0656241 
H     1.2849625   -1.0465708   -4.2301582 
