48
Energy =
C     1.7366491    1.6120197    5.8647158 
C     1.7253951    1.0637438    4.6235748 
C     2.9023513    2.0576835    6.4046756 
C     4.0500403    1.9523140    5.6969059 
C     4.0448372    1.4049457    4.4550610 
C     2.8813762    0.9533219    3.9120564 
H     0.7844148    0.7171916    4.2044975 
H     4.9727861    2.3134161    6.1378562 
H     4.9771084    1.3313366    3.9008997 
H     0.8108206    1.6942873    6.4234543 
C     2.8734589    0.3594355    2.5209768 
C     2.9216729    1.4455358    1.4180988 
H     1.9825012   -0.2911121    2.3706268 
H     3.7532203   -0.3154920    2.4161227 
C     3.1090222    0.8471569    0.0350662 
O     2.9484955    2.6278605    7.6811084 
H     2.0485292    2.6713919    8.1465123 
O     3.0426059   -0.5288694   -0.1686970 
N     1.7082607    2.2786450    1.4524746 
H     3.8168090    2.0907504    1.5816888 
H     0.8531499    1.6730199    1.4538357 
H     1.6954870    2.8482488    2.3312788 
N     3.4350779    1.6981276   -1.0671019 
C     4.7462923    1.5016988   -1.7070219 
H     2.7538706    2.4371871   -1.3578168 
C     5.4203688    2.8424475   -1.9873717 
O     4.6698885    3.8935041   -2.5028412 
O     6.7921541    3.0265831   -1.8089680 
H     7.2574444    2.1771895   -1.5251604 
C     4.5312402    0.6930111   -2.9987265 
H     5.4146925    0.9238424   -1.0267809 
C     5.8416223    0.2502955   -3.6105661 
H     3.9324837    1.2828665   -3.7270623 
H     3.9244906   -0.2102260   -2.7596984 
C     6.5711384    0.9037909   -4.5297156 
C     6.3299466    2.0823682   -5.1600092 
C     7.2511087    2.5384974   -6.0563424 
C     8.3864185    1.8187635   -6.3075633 
C     8.6087440    0.6390846   -5.6614215 
C     7.6826165    0.2088014   -4.7789751 
H     5.4358406    2.6641793   -4.9552659 
H     7.0840217    3.4840453   -6.5670467 
H     9.1175091    2.1921488   -7.0203107 
H     9.5069376    0.0591424   -5.8440808 
N     7.7289919   -0.9752681   -3.9951331 
C     6.5022858   -0.8675926   -3.2622963 
H     8.4605628   -1.7216440   -3.9606740 
H     6.1650803   -1.5865039   -2.5187837 
