48
Energy =
C     1.0833036   -3.3212136    0.1715148 
C     0.4769984   -2.1076649    0.1399303 
C     1.8631016   -3.7225245   -0.8674136 
C     2.0296735   -2.9062953   -1.9324692 
C     1.4264096   -1.6913903   -1.9690817 
C     0.6459173   -1.2830929   -0.9308103 
H    -0.1386634   -1.7976421    0.9799699 
H     2.6565547   -3.2372243   -2.7536544 
H     1.5814597   -1.0484517   -2.8310017 
H     0.9456007   -3.9682748    1.0310400 
C    -0.0061803    0.0841120   -0.9542724 
C     0.6427419    1.0617020    0.0534611 
H    -1.0852208   -0.0292338   -0.7094806 
H     0.0315553    0.5183167   -1.9774237 
C     2.1534684    1.1666428   -0.1078292 
O     2.5031566   -4.9655951   -0.8667017 
H     2.3399041   -5.5149315   -0.0298072 
O     2.9732011    0.6705077    0.9043204 
N    -0.0049312    2.3803536   -0.0456004 
H     0.4897979    0.6706712    1.0873630 
H     0.0274182    2.7424602   -1.0274991 
H    -1.0138247    2.3016306    0.2259625 
N     2.7386449    1.6183115   -1.3428945 
C     4.1991057    1.4727530   -1.5065940 
H     2.1166675    1.9881543   -2.0946764 
C     4.7401134    2.4418300   -2.5512210 
O     5.7026342    3.3721845   -2.1830200 
O     4.3184514    2.4055556   -3.8829906 
H     3.6109774    1.7047466   -4.0379991 
C     4.5300536    0.0032921   -1.8523201 
H     4.7135954    1.7565325   -0.5553848 
C     6.0211728   -0.2437568   -1.8419708 
H     4.1089729   -0.2703453   -2.8430855 
H     4.0472012   -0.6740553   -1.1140467 
C     6.7770924   -0.5456545   -0.7748212 
C     6.4187034   -0.7308798    0.5218372 
C     7.3956041   -1.0205368    1.4284581 
C     8.7009425   -1.1155445    1.0312298 
C     9.0374700   -0.9192796   -0.2754881 
C     8.0525663   -0.6371095   -1.1540168 
H     5.3837424   -0.6458168    0.8424723 
H     7.1342570   -1.1712265    2.4731969 
H     9.4740473   -1.3425960    1.7609065 
H    10.0685892   -0.9822311   -0.6059178 
N     8.1892339   -0.3778618   -2.5443715 
C     6.8262956   -0.1213361   -2.9118362 
H     9.0511383   -0.3814577   -3.1367446 
H     6.4988755    0.1800060   -3.9066249 
