48
Energy =
C    -1.2090126   -2.5830296   -4.9335560 
C    -1.4022737   -1.6050853   -4.0124362 
C    -0.0237349   -3.2475213   -4.9869606 
C     0.9615068   -2.9269271   -4.1184680 
C     0.7730734   -1.9522214   -3.1940421 
C    -0.4122293   -1.2839161   -3.1338097 
H    -2.3533646   -1.0799458   -3.9867307 
H     1.9045948   -3.4585176   -4.1759170 
H     1.5801895   -1.7044289   -2.5106472 
H    -2.0043332   -2.8309609   -5.6282116 
C    -0.6210938   -0.1827784   -2.1127287 
C    -0.0687332    1.1897487   -2.5717675 
H    -0.1411466   -0.4749039   -1.1527699 
H    -1.7041966   -0.0793369   -1.8811775 
C     1.4490119    1.1692111   -2.7463805 
O     0.2068489   -4.2627240   -5.9209589 
H    -0.5740382   -4.4317774   -6.5455645 
O     1.9763789    0.9682581   -4.0186332 
N    -0.7655044    1.6652712   -3.7792130 
H    -0.2706795    1.9268921   -1.7624726 
H    -0.4929704    1.0760572   -4.6031543 
H    -1.8009070    1.5842549   -3.6560362 
N     2.2887673    1.1444671   -1.5656985 
C     3.7678353    1.0008794   -1.5322584 
H     1.7940457    1.2116244   -0.6467098 
C     4.3504825    2.0348304   -0.5672273 
O     4.5156107    3.3505104   -0.9872448 
O     4.6816085    1.7087022    0.7494466 
H     4.5066182    0.7388183    0.9634923 
C     4.4587577    1.0764914   -2.9162193 
H     3.9954025   -0.0039772   -1.1165083 
C     5.9678850    0.9896186   -2.8096759 
H     4.1594418    2.0175237   -3.4341943 
H     4.1233801    0.2318466   -3.5535876 
C     6.6985463   -0.1279122   -2.6692319 
C     6.3028103   -1.4260779   -2.6184336 
C     7.2567050   -2.3881833   -2.4606532 
C     8.5756658   -2.0425419   -2.3544543 
C     8.9488487   -0.7321777   -2.4055275 
C     7.9868874    0.2007619   -2.5649720 
H     5.2565002   -1.7033704   -2.7014614 
H     6.9672833   -3.4354235   -2.4190481 
H     9.3299210   -2.8150679   -2.2276043 
H     9.9900026   -0.4404720   -2.3191954 
N     8.1582031    1.6090410   -2.6309358 
C     6.8007004    2.0458622   -2.7833913 
H     9.0376074    2.1730760   -2.5859581 
H     6.4896242    3.0895273   -2.8294772 
