48
Energy =
C     5.0671336    1.2108325   -7.7723032 
C     4.0705737    1.2734254   -6.8533923 
C     4.8787510    0.5406981   -8.9402214 
C     3.6938923   -0.0668706   -9.1780134 
C     2.6944367   -0.0095347   -8.2615771 
C     2.8748226    0.6681418   -7.0951208 
H     4.2423009    1.8006937   -5.9185441 
H     3.5573443   -0.6040439  -10.1101156 
H     1.7541405   -0.5131577   -8.4695329 
H     6.0164117    1.6935636   -7.5680240 
C     1.7674295    0.7145902   -6.0655113 
C     1.7926281   -0.5174415   -5.1303743 
H     0.7899619    0.7650942   -6.5909447 
H     1.8256628    1.6552882   -5.4732391 
C     3.0414152   -0.5634328   -4.2541867 
O     5.8836538    0.4613681   -9.9104610 
H     6.7470675    0.9225447   -9.6463837 
O     4.2090519   -1.1148166   -4.7697742 
N     0.5603079   -0.5518769   -4.3249726 
H     1.8345788   -1.4438838   -5.7513951 
H     0.4373840    0.3560735   -3.8132385 
H    -0.2711401   -0.6777729   -4.9488376 
N     2.9630782   -0.3263344   -2.8406471 
C     3.4939231    0.9422619   -2.3077790 
H     2.5266484   -1.0609578   -2.2411095 
C     2.7151692    2.1420003   -2.8416473 
O     3.1987945    2.8857930   -3.9109878 
O     1.4449456    2.4466919   -2.3568779 
H     1.1780562    1.8327769   -1.6017827 
C     5.0177331    1.0169269   -2.5607649 
H     3.3330518    0.9424301   -1.2070547 
C     5.6882062    2.0579972   -1.6888705 
H     5.2238293    1.2036688   -3.6351042 
H     5.4713514    0.0250369   -2.3385431 
C     6.1327919    3.2727043   -2.0550850 
C     6.1252309    3.8802310   -3.2699189 
C     6.6480934    5.1356158   -3.3724356 
C     7.1699495    5.7586918   -2.2731040 
C     7.1713661    5.1296720   -1.0639718 
C     6.6460575    3.8886825   -0.9874408 
H     5.7100681    3.3931860   -4.1456207 
H     6.6445293    5.6435733   -4.3336697 
H     7.5828790    6.7602318   -2.3632026 
H     7.5809609    5.6093588   -0.1816655 
N     6.5546284    3.0683495    0.1685703 
C     5.9221861    1.9027045   -0.3733536 
H     6.8657798    3.2625470    1.1476548 
H     5.6673891    1.0183724    0.2053336 
