48
Energy =
C    -0.9789702   -0.7662823   -5.2650892 
C    -0.9703412    0.5805909   -5.0980514 
C    -0.6872005   -1.5867914   -4.2204343 
C    -0.3915326   -1.0528512   -3.0139615 
C    -0.3817302    0.2929178   -2.8412357 
C    -0.6694595    1.1194520   -3.8846239 
H    -1.2013307    1.2229720   -5.9437049 
H    -0.1595669   -1.7174419   -2.1891388 
H    -0.1298012    0.7041506   -1.8659579 
H    -1.2174636   -1.1846010   -6.2371126 
C    -0.6343644    2.6222401   -3.6987097 
C     0.7655550    3.2428060   -3.9326842 
H    -0.9679764    2.8700198   -2.6650038 
H    -1.3738247    3.1053939   -4.3740236 
C     1.8165556    2.6696181   -3.0014547 
O    -0.6806679   -2.9782976   -4.3601859 
H    -0.9207715   -3.2970236   -5.2924674 
O     1.8210911    3.0646891   -1.6688907 
N     1.1626158    3.1565183   -5.3480667 
H     0.7165101    4.3209665   -3.6505811 
H     1.2673062    2.1575451   -5.6406566 
H     0.4253367    3.5848096   -5.9547300 
N     2.6637660    1.5846574   -3.4008154 
C     4.0950980    1.7268642   -3.0888733 
H     2.2516498    0.7569428   -3.8876095 
C     4.7431617    2.8051234   -3.9590480 
O     5.2458376    2.4832079   -5.2145857 
O     4.8112292    4.1334369   -3.5365507 
H     4.2840689    4.2783697   -2.6870440 
C     4.7788174    0.3481797   -3.2288136 
H     4.2018857    2.0505599   -2.0280929 
C     6.1893290    0.3564454   -2.6758525 
H     4.7629453    0.0214488   -4.2911664 
H     4.1885733   -0.4066274   -2.6629099 
C     7.3423506    0.3639795   -3.3675728 
C     7.5614897    0.3471580   -4.7082876 
C     8.8494538    0.3605457   -5.1560575 
C     9.8894764    0.3870761   -4.2693367 
C     9.6477921    0.4009192   -2.9282157 
C     8.3649429    0.3887361   -2.5091186 
H     6.7428698    0.3299383   -5.4205796 
H     9.0482273    0.3548505   -6.2251492 
H    10.9129383    0.4002066   -4.6356980 
H    10.4616789    0.4234174   -2.2114951 
N     7.9038258    0.3995700   -1.1655512 
C     6.4849205    0.3782728   -1.3634075 
H     8.4536355    0.4157277   -0.2758149 
H     5.7526624    0.3843055   -0.5588603 
