48
Energy =
C    -2.0878770    0.3091422   -3.5822903 
C    -0.9958769    0.7892160   -2.9355603 
C    -3.3148259    0.8441300   -3.3417387 
C    -3.4396151    1.8577487   -2.4548748 
C    -2.3508064    2.3420080   -1.8052344 
C    -1.1207073    1.8110742   -2.0442828 
H    -0.0203322    0.3520394   -3.1387401 
H    -4.4231954    2.2758742   -2.2720666 
H    -2.4716043    3.1550394   -1.0945228 
H    -1.9760600   -0.5034980   -4.2918252 
C     0.0957881    2.3305638   -1.3122891 
C     0.4837854    1.4238368   -0.1189759 
H    -0.0680062    3.3745971   -0.9618081 
H     0.9392845    2.3920511   -2.0365016 
C     1.8975655    1.7153006    0.3502287 
O    -4.4611200    0.3710235   -3.9892263 
H    -4.2804802   -0.3822880   -4.6436250 
O     2.2531644    3.0010711    0.7452661 
N    -0.4728818    1.5813713    0.9878964 
H     0.4809325    0.3581474   -0.4490904 
H    -0.5306524    2.5907730    1.2655603 
H    -1.4272166    1.2883056    0.6726214 
N     2.9302467    0.7395646    0.1560611 
C     3.7501027    0.8784856   -1.0615794 
H     3.0743324    0.0012030    0.8824627 
C     3.0446502    0.2836427   -2.2793590 
O     2.9584708    1.0250899   -3.4511026 
O     2.4739264   -0.9904998   -2.2505427 
H     2.6077395   -1.4262009   -1.3498761 
C     5.1263972    0.2305246   -0.8059748 
H     3.9095790    1.9619189   -1.2825739 
C     6.1018397    0.5285532   -1.9242125 
H     5.0238220   -0.8662527   -0.6580928 
H     5.5419581    0.6349737    0.1452986 
C     6.3410447   -0.2182021   -3.0150084 
C     5.8179861   -1.4154913   -3.3860429 
C     6.2276156   -1.9645359   -4.5653785 
C     7.1433504   -1.3171934   -5.3478591 
C     7.6543806   -0.1156538   -4.9559897 
C     7.2340158    0.4068462   -3.7847825 
H     5.0864510   -1.9306398   -2.7719165 
H     5.8192953   -2.9196538   -4.8869172 
H     7.4616357   -1.7598596   -6.2883541 
H     8.3773166    0.4137193   -5.5672059 
N     7.6291618    1.6423638   -3.2056103 
C     6.8439832    1.6468642   -2.0065179 
H     8.3107112    2.3526165   -3.5585019 
H     6.8392909    2.4542094   -1.2773298 
