48
 energy: -9.100296156910 gnorm: 0.000862004461 xtb: 6.6.0 (2ccbbd7)
C            1.01141450367503       -0.83397105519097       -7.66807233830562
C            1.17575170878670       -1.04222353702209       -6.31899976663775
C            1.75100747015382        0.14603057204230       -8.33164052866456
C            2.65151631383394        0.90980395322247       -7.58954572072410
C            2.80906058403880        0.69549796480588       -6.24222815784646
C            2.08274141308036       -0.28875544799384       -5.58833942206808
H            0.59761802069987       -1.79788809227367       -5.81548416126641
H            3.21248626182481        1.67454550005949       -8.09679695866686
H            3.48107982111226        1.31173336194794       -5.66913667797157
H            0.30907348428642       -1.42685686116949       -8.22642024247378
C            2.25433144200033       -0.50701051500000       -4.12302965845226
C            1.41005730340274        0.41004018595429       -3.23254191746940
H            3.40399390070175       -0.33032953777026       -3.81026543117287
H            2.07462247862529       -1.55712000217811       -3.87025990969570
C            1.86063551451976        0.35980187157843       -1.77631300445264
O            1.61253392779909        0.37703803874614       -9.68674610642980
H            0.94113082781863       -0.23072146910666      -10.06503912119458
O            1.23542395006470       -0.39969687588996       -1.05862852780636
N            1.29982390210354        1.77244358063997       -3.72987658761223
H            0.37808327361843        0.01890637309368       -3.22665405126077
H            2.23930476256962        2.13992275709743       -3.83367035303015
H            0.87404413595296        1.79231189527969       -4.64750105826582
N            2.90061352433015        1.11422981696129       -1.22720640042067
C            4.20488828845492        1.43583897515918       -1.86466273707790
H            3.02274481266483        0.99482612246431       -0.22351404965451
C            4.06060444289229        2.57173600007568       -2.85875754711447
O            4.14687700597250        2.34660140683427       -4.04691041819186
O            3.79886214303183        3.79213606936722       -2.32916063250910
H            3.69833863273870        3.73805898135562       -1.35472618315950
C            4.85932242455378        0.18453284692900       -2.44344383346261
H            4.87585312704780        1.81066011870692       -1.07635734089986
C            6.25855244542008        0.35024204915973       -2.92359688556218
H            4.13442092593974       -0.15499432487082       -3.34111042542109
H            4.81211221462720       -0.62577706264918       -1.71019045179328
C            7.39769057075310       -0.40688320796998       -2.51561170761745
C            7.57305422331818       -1.44943153229730       -1.58912086077485
C            8.82327557569227       -1.97928831754939       -1.42761070159423
C            9.91745840078284       -1.50120854533621       -2.16656868652860
C            9.77101563281150       -0.48815801747558       -3.07383161322932
C            8.49920426388887        0.06977353322623       -3.25469232715199
H            6.73437301162689       -1.81363087787701       -1.02330445015675
H            8.97391250074598       -2.77871071045929       -0.72114560352159
H           10.88866119052897       -1.94223564656882       -2.01491901277946
H           10.60306240415059       -0.11634108234293       -3.64445120372513
N            8.04179181779480        1.08008415579277       -4.08259200903943
C            6.69537026604839        1.23733831675617       -3.87382669323136
H            8.62244221374896        1.61531019600903       -4.73065026901994
H            6.06692922372496        1.95689251729585       -4.37059198122920
