48
Energy =
C     0.1166406   -3.6037660    3.0582900 
C    -0.0575203   -3.4007391    1.7249662 
C     1.0254066   -2.8623562    3.7524148 
C     1.7550018   -1.9237380    3.1063603 
C     1.5772093   -1.7292103    1.7772550 
C     0.6681479   -2.4470817    1.0802775 
H    -0.7767071   -4.0081319    1.1821853 
H     2.4761377   -1.3337707    3.6610344 
H     2.1371023   -0.9318510    1.1195885 
H    -0.4684055   -4.3626108    3.5664943 
C     0.5452085   -2.2311886   -0.4208350 
C     0.5987931   -0.7338626   -0.8642769 
H    -0.4146212   -2.6704004   -0.7718493 
H     1.3601689   -2.7952791   -0.9250694 
C     1.9851057   -0.0780080   -0.6966157 
O     1.2276354   -3.0462222    5.1238392 
H     0.6421948   -3.7658797    5.5328561 
O     2.6717241   -0.1821184    0.5160120 
N     0.1282338   -0.6361544   -2.2559132 
H    -0.0825001   -0.1377706   -0.2110829 
H     0.6580020   -1.3080987   -2.8601992 
H    -0.8852750   -0.8966864   -2.3078856 
N     2.3931300    0.9744323   -1.5774644 
C     3.8086076    0.8009101   -2.0002701 
H     2.2750022    1.8462005   -1.0104506 
C     4.6073118    2.1069389   -1.9875054 
O     3.9573004    3.3293146   -2.1064196 
O     6.0027237    2.0994078   -1.9259011 
H     6.3813031    1.1704192   -1.8182804 
C     3.8296309    0.1435898   -3.3978754 
H     4.3625066    0.1357361   -1.2938295 
C     3.2958829    1.0631075   -4.4812393 
H     3.2098308   -0.7795918   -3.3727904 
H     4.8609688   -0.1838274   -3.6495900 
C     4.0072830    1.8910718   -5.2662231 
C     5.3463127    2.1157831   -5.3131700 
C     5.8203205    3.0306067   -6.2070564 
C     4.9599213    3.7005315   -7.0318644 
C     3.6196089    3.4619449   -6.9654102 
C     3.1750333    2.5522105   -6.0732861 
H     6.0323725    1.6000013   -4.6493188 
H     6.8870996    3.2357818   -6.2556856 
H     5.3446577    4.4332635   -7.7367681 
H     2.9219548    3.9913449   -7.6053378 
N     1.8274703    2.1729986   -5.8365853 
C     1.9941864    1.2142752   -4.7839219 
H     0.9523859    2.4960141   -6.3090400 
H     1.1742912    0.7125789   -4.2790196 
