48
Energy =
C     3.5119632   -0.3245005    5.2236860 
C     3.5444015    0.2497966    3.9943803 
C     2.6594057   -1.3536902    5.4752122 
C     1.8448881   -1.8018867    4.4931379 
C     1.8732930   -1.2318652    3.2619556 
C     2.7212953   -0.1980615    3.0064916 
H     4.2355982    1.0676343    3.8072744 
H     1.1708514   -2.6243970    4.7060238 
H     1.2133787   -1.6092262    2.4846419 
H     4.1708845    0.0400726    6.0043925 
C     2.7679262    0.4230452    1.6282683 
C     3.6137554   -0.4200307    0.6452907 
H     3.1601873    1.4624888    1.6815912 
H     1.7255459    0.5117100    1.2413085 
C     3.4194939    0.0545054   -0.7900529 
O     2.6018753   -1.9685344    6.7300856 
H     3.2398957   -1.5735765    7.4123866 
O     2.2820336   -0.3710332   -1.4643417 
N     5.0335691   -0.4243493    1.0403869 
H     3.2323897   -1.4695348    0.6459224 
H     5.3560869    0.5404935    1.2899717 
H     5.1533714   -1.0141812    1.8984642 
N     4.1453332    1.1739317   -1.3298615 
C     5.4199758    0.7410921   -1.9484291 
H     4.3175668    1.8382362   -0.5416525 
C     6.4012219    1.9061867   -2.0609934 
O     7.6733015    1.7821164   -1.5178309 
O     6.0582160    3.0974521   -2.7018221 
H     5.0936518    3.0913547   -3.0030963 
C     5.1249200    0.1284983   -3.3371688 
H     5.9332678   -0.0231431   -1.3171177 
C     6.3702549   -0.4592583   -3.9615486 
H     4.6877052    0.8992837   -4.0099865 
H     4.3510005   -0.6656535   -3.2529191 
C     6.8825369   -1.6782091   -3.7335007 
C     6.4229175   -2.6808371   -2.9415275 
C     7.1471068   -3.8345858   -2.8720721 
C     8.3080751   -3.9655309   -3.5834392 
C     8.7525201   -2.9423707   -4.3677749 
C     8.0165143   -1.8124652   -4.4225981 
H     5.5052140   -2.5751734   -2.3700944 
H     6.8009858   -4.6525654   -2.2448435 
H     8.8815148   -4.8869310   -3.5198928 
H     9.6748517   -3.0262207   -4.9322869 
N     8.3086664   -0.6307416   -5.1554785 
C     7.1965908    0.2001896   -4.7922565 
H     9.1132671   -0.4273336   -5.7919059 
H     7.0674507    1.2361225   -5.1057149 
