48
 energy: -9.072880202032 gnorm: 0.000533966932 xtb: 6.6.0 (2ccbbd7)
C           -0.37301984407428        2.03417863157223       -5.99314593520150
C           -0.21749393479748        2.04259113044815       -4.62731958925760
C           -1.09249259566997        1.01583117919892       -6.61964878280053
C           -1.64050095243592        0.00944403776377       -5.82477168274786
C           -1.47564271173442        0.02216456599696       -4.46030803399387
C           -0.76699461859939        1.04017401233107       -3.83992119797377
H            0.35643485014212        2.82298068009579       -4.15719385819872
H           -2.18784526545996       -0.78008214842672       -6.30791631306549
H           -1.89121177353373       -0.76828031326624       -3.85911412378125
H            0.06695040267763        2.81076467643423       -6.59284699256104
C           -0.55022252887355        1.02129797749505       -2.35777900698831
C            0.58543263405186        0.08965673910673       -1.91891109724663
H           -1.48005994174078        0.73140729493639       -1.85828094099594
H           -0.32918738077813        2.03421014245370       -2.00833838009607
C            1.90820567531511        0.53882110251763       -2.50003634445682
O           -1.27265936327271        0.98075800224608       -7.98941550630194
H           -0.80053627138301        1.73187315807257       -8.40923247327802
O            2.15147779120432        0.29417789239479       -3.66508113922046
N            0.64846852522229       -0.03524819157073       -0.46458949029660
H            0.39907820072260       -0.91474240093504       -2.33065794475837
H            0.68808663390847        0.88366212194687       -0.04355002389190
H           -0.19113937160638       -0.47610485564282       -0.11018516321080
N            2.76815957930883        1.24487516228550       -1.69304983621418
C            4.08927530650092        1.72267815791807       -2.12901179896077
H            2.53871340458782        1.39773005181882       -0.70563383514378
C            3.94513313370290        2.98289001107726       -2.93316618523854
O            4.79212629237887        4.02275186832043       -2.68279785118303
O            2.97628286364266        2.99046972528439       -3.90528478521790
H            2.60585845004300        2.07358736379602       -3.94005644884698
C            4.85956041050598        0.63979870582433       -2.90075736945537
H            4.66284964363419        1.96825706773868       -1.22271931022084
C            6.35046070093731        0.69058172034763       -2.76917631777890
H            4.57700362856899        0.68045967574564       -3.95757413503011
H            4.51262998625302       -0.33815986660620       -2.54904453777228
C            7.20411319260664        1.81615400835519       -2.53849830221703
C            6.98033313064821        3.19155299510196       -2.37820970533566
C            8.03704419829283        4.02295704320081       -2.15642647795284
C            9.34803302278615        3.52571699259139       -2.08575783443863
C            9.60270636862404        2.19166045616589       -2.24550179150856
C            8.52559087322442        1.32594149707872       -2.47565687932493
H            5.84539480678370        3.64294268894031       -2.50663730470928
H            7.86173400736859        5.07969119417020       -2.04183561351627
H           10.16334643673566        4.20743651641137       -1.90893201820153
H           10.60241524563725        1.79856323751563       -2.19944763702935
N            8.47554047170767       -0.03992132060379       -2.67947302350451
C            7.16695546278951       -0.41026704320579       -2.85847031636280
H            9.28864350461891       -0.65834549560098       -2.69292559436604
H            6.83367044079195       -1.42088024605139       -3.03118973097300
