48
Energy =
C    -0.6293314    5.8600667    1.0192357 
C    -0.6915696    4.7554929    0.2336534 
C     0.1977431    5.8852679    2.0983574 
C     0.9608847    4.8048923    2.3808527 
C     0.9029764    3.6977946    1.5982282 
C     0.0691746    3.6638046    0.5226084 
H    -1.3492318    4.7514961   -0.6314753 
H     1.6226854    4.8403167    3.2394039 
H     1.5336892    2.8454380    1.8353769 
H    -1.2397484    6.7240505    0.7804333 
C     0.0204532    2.4421815   -0.3701506 
C     0.8731911    2.6282993   -1.6437546 
H    -1.0345395    2.2443450   -0.6602516 
H     0.3614174    1.5400880    0.1826912 
C     2.3323115    2.9023578   -1.3180020 
O     0.2824968    7.0056347    2.9317091 
H    -0.3005946    7.7827823    2.6407606 
O     2.8258519    4.0139109   -1.5554451 
N     0.7295627    1.4489727   -2.5140473 
H     0.5156928    3.5285468   -2.1995426 
H     1.0183886    0.5843030   -1.9997379 
H    -0.2723663    1.3353054   -2.7947850 
N     3.1956145    1.8677639   -0.8209725 
C     4.5380187    1.8905302   -1.4250833 
H     2.8732711    1.1797167   -0.1073976 
C     4.8291537    3.2924439   -1.9826152 
O     6.0169296    3.5560766   -2.6576409 
O     3.9943712    4.2001153   -1.8375677 
H     3.5618217    4.3260650   -0.9468289 
C     4.5788975    0.8011639   -2.5165460 
H     5.2994367    1.6891956   -0.6406336 
C     5.9926744    0.4502390   -2.9258410 
H     3.9875852    1.1400364   -3.3987256 
H     4.0708423   -0.1168852   -2.1502299 
C     6.8132661   -0.4140554   -2.3087099 
C     6.6003529   -1.1817633   -1.2089091 
C     7.6143734   -1.9823883   -0.7717140 
C     8.8127010   -2.0013253   -1.4304785 
C     9.0046962   -1.2187925   -2.5303107 
C     7.9855644   -0.4373380   -2.9448404 
H     5.6517434   -1.1632303   -0.6810257 
H     7.4703281   -2.6067213    0.1066085 
H     9.6169492   -2.6400053   -1.0742612 
H     9.9507574   -1.2176365   -3.0609351 
N     7.9820581    0.4548001   -4.0498903 
C     6.6553910    0.9961368   -3.9608657 
H     8.7373327    0.6541964   -4.7451069 
H     6.2614101    1.7847694   -4.6020645 
