48
Energy =
C     1.1772018   -3.8415101   -7.1611406 
C     1.3991244   -3.2200418   -5.9717674 
C     1.7248109   -3.3466624   -8.3027673 
C     2.4912342   -2.2356438   -8.2487264 
C     2.7154024   -1.6096228   -7.0612704 
C     2.1691709   -2.0992125   -5.9178682 
H     0.9624217   -3.6219962   -5.0598155 
H     2.9189218   -1.8664528   -9.1746679 
H     3.3397372   -0.7193757   -7.0113717 
H     0.5636988   -4.7344170   -7.2014898 
C     2.4068955   -1.3954493   -4.6002106 
C     1.1565726   -0.6179271   -4.1232148 
H     3.2717357   -0.6967402   -4.6792245 
H     2.6889284   -2.1623254   -3.8426984 
C     1.3010690   -0.2282805   -2.6652955 
O     1.5187728   -3.9575096   -9.5427419 
H     0.9352067   -4.7851949   -9.5024373 
O     1.1249943   -1.2047118   -1.6887821 
N     0.8953421    0.5509507   -4.9843467 
H     0.2705667   -1.2903045   -4.1463404 
H     1.7689937    1.1259793   -5.0391534 
H     0.6876586    0.2209761   -5.9548522 
N     1.4149019    1.1437487   -2.2605693 
C     2.6201390    1.3654900   -1.4241000 
H     0.5585566    1.3093862   -1.6808652 
C     2.5356392    2.7103890   -0.7077558 
O     2.9289997    2.7996583    0.6208253 
O     2.1520267    3.8751240   -1.3724760 
H     1.8886538    3.6807562   -2.3277992 
C     3.9084232    1.3102822   -2.3068952 
H     2.6563070    0.6231005   -0.5941538 
C     4.8382479    0.1329759   -2.0419843 
H     4.4956328    2.2448592   -2.1650359 
H     3.6389126    1.3004326   -3.3838480 
C     6.1504269    0.0968403   -2.3404376 
C     6.9479362    1.0568096   -2.8802940 
C     8.2624374    0.7646867   -3.0968588 
C     8.7566867   -0.4700711   -2.7812533 
C     7.9383856   -1.4209918   -2.2494333 
C     6.6425820   -1.1064972   -2.0407804 
H     6.5626734    2.0367625   -3.1429782 
H     8.9196655    1.5176050   -3.5251696 
H     9.8051144   -0.6960773   -2.9586726 
H     8.3121482   -2.4084115   -2.0004197 
N     5.6307259   -1.9540637   -1.5234309 
C     4.4907293   -1.0840897   -1.5731169 
H     5.6988301   -2.9457638   -1.1970276 
H     3.4868216   -1.3930438   -1.2932848 
