48
Energy =
C     0.3243750    5.9287306   -5.9766729 
C     0.2140477    5.4834195   -4.6993458 
C     1.5444866    5.9982594   -6.5738924 
C     2.6473080    5.6279771   -5.8853671 
C     2.5432955    5.1844725   -4.6082368 
C     1.3241371    5.1081379   -4.0060043 
H    -0.7698039    5.4203363   -4.2414188 
H     3.6150586    5.6869643   -6.3709994 
H     3.4432416    4.8859999   -4.0775656 
H    -0.5668378    6.2221338   -6.5209399 
C     1.2047035    4.5548133   -2.6021024 
C     1.2993992    3.0105736   -2.5943980 
H     0.2565967    4.8776812   -2.1177077 
H     2.0198758    4.9876010   -1.9706142 
C     1.5545007    2.4829128   -1.1937306 
O     1.6921648    6.4410854   -7.8922738 
H     0.8210166    6.7155576   -8.3333941 
O     0.7940983    2.9614135   -0.1342997 
N     0.0845417    2.4025323   -3.1602109 
H     2.1756744    2.7171685   -3.2038771 
H    -0.7547300    2.7195761   -2.6166148 
H    -0.0396870    2.7060346   -4.1540626 
N     2.4736984    1.4037003   -0.9403972 
C     3.9182534    1.7181707   -1.1371159 
H     2.1387595    0.5604177   -1.4505359 
C     4.2544310    3.2136599   -1.2246341 
O     4.8585610    3.7440818   -2.3499625 
O     3.9315839    4.0906975   -0.1941357 
H     3.4159280    3.6267478    0.5445931 
C     4.5870345    0.8140106   -2.2265216 
H     4.4204841    1.4317214   -0.1861129 
C     4.0106269    0.9197291   -3.6316175 
H     4.5051102   -0.2461476   -1.8986589 
H     5.6779814    1.0260641   -2.2529043 
C     4.4844853    1.6432633   -4.6671325 
C     5.5986509    2.4153704   -4.7655311 
C     5.8442598    3.0612517   -5.9417915 
C     4.9916053    2.9169834   -6.9996008 
C     3.8932416    2.1193445   -6.8902396 
C     3.6708057    1.4935109   -5.7156543 
H     6.2857333    2.5303410   -3.9335168 
H     6.7235773    3.6941724   -6.0374342 
H     5.1925725    3.4351323   -7.9344702 
H     3.2118138    1.9859570   -7.7240573 
N     2.6054599    0.6091874   -5.4114164 
C     2.9110050    0.2650822   -4.0558902 
H     1.8135796    0.2915165   -6.0167708 
H     2.3286451   -0.4389566   -3.4679548 
