48
 energy: -9.049336605744 gnorm: 0.000317595045 xtb: 6.6.0 (2ccbbd7)
C            1.99365122947070       -1.13111908814398        2.69842954340429
C            1.72651280097258       -0.43927678270414        1.54209283404286
C            1.00841617674355       -1.28946493142435        3.67275359005047
C           -0.24453998604683       -0.72448807558315        3.43901940710104
C           -0.50173045627731       -0.03556122309227        2.27752186895587
C            0.47823065215660        0.11816051371344        1.30561601788498
H            2.49167041291525       -0.34597366400781        0.79544572995851
H           -1.00445165433535       -0.84357065953364        4.19044603535489
H           -1.47648534901283        0.39067154888160        2.11329414063071
H            2.96516473635717       -1.56226309064676        2.86137494291895
C            0.16870710189588        0.84835700022679        0.02862195294488
C            0.39368414573481        0.01979035836257       -1.26461108917417
H            0.74941407353322        1.77517037692722       -0.01278359332504
H           -0.87522949840157        1.17917895597321        0.06978398681212
C            1.67153155092161        0.43865706283269       -2.05122440088194
O            1.23978213336353       -1.98552769378076        4.84415217877031
H            2.16443810364994       -2.31475581879887        4.86182027010719
O            1.82649727591399       -0.39739787985888       -3.23077871429416
N            0.41512612691489       -1.41420236291671       -1.02631578789338
H           -0.45018891770284        0.18679327414857       -1.95286132396858
H            1.32897224933909       -1.69531425001606       -0.69734804322149
H           -0.27065115962153       -1.67978029255465       -0.32930296543089
N            2.89023393089609        0.48863094792043       -1.19454961502327
C            4.21795215560683        0.91632787856939       -1.69604975176714
H            2.67746547292153        1.16896605022486       -0.45369982872840
C            4.29081165118831        2.43520460925779       -1.68257403520219
O            3.38191324369869        3.02757249909143       -1.14062941529370
O            5.36564926299846        3.03513984908974       -2.25539029835411
H            6.01314830437159        2.37775876708953       -2.59024180090116
C            4.60574741470353        0.29939160069156       -3.04532634922720
H            4.94219116388850        0.56636173880752       -0.94321662848406
C            3.74108160311125        0.73641686699068       -4.16656516487379
H            4.52606427186972       -0.79002320505254       -2.96487016034467
H            5.65164300980268        0.50876231445526       -3.28825651182269
C            2.23870404935831        0.75587652267134       -4.01786489898031
C            1.53246575926217        1.69821748742235       -2.98072965398600
C            0.13789150762909        2.07505704107108       -3.38806851528629
C           -0.33956123512261        1.89139485410164       -4.62553194000035
C            0.46658726277807        1.36236121479622       -5.69090732541931
C            1.69644973661341        0.87249640188530       -5.42355325763798
H            2.15264369311108        2.55160039270895       -2.68506815480359
H           -0.50076538736519        2.49831185213841       -2.63120106265892
H           -1.35031415961181        2.18768247417458       -4.85263426694422
H            0.14612534733306        1.46417680290942       -6.71277624199713
N            2.81246302394619        0.73007419499282       -6.24274588572508
C            4.00354529191720        0.67254852216029       -5.48890651047685
H            2.79858476661317        0.95199004726042       -7.23812980880501
H            4.97794561014750        0.50525444498608       -5.91641783587278
