48
 energy: -9.061276405957 gnorm: 0.000624106079 xtb: 6.6.0 (2ccbbd7)
C            0.31792656708372       -5.51313277991530       -2.21496477538167
C            0.35345452605499       -4.14272077978869       -2.10861468354631
C            0.81896367688194       -6.31783025863005       -1.19100786077045
C            1.35576648901093       -5.69498246287525       -0.06452731415419
C            1.38773075949030       -4.32442033055429        0.03423335294314
C            0.88268930358341       -3.52777013215717       -0.98338891485839
H           -0.03200420659599       -3.53006128214576       -2.90566926640430
H            1.74223358648339       -6.31496186032446        0.72454270092377
H            1.80749699577613       -3.85722101426846        0.90857053042303
H           -0.09637300094480       -5.97887249066342       -3.09113940932341
C            0.94954995899116       -2.03509900552100       -0.89685529256061
C            2.05865362341518       -1.43630445565858       -1.76240879139725
H            1.10511048187184       -1.72858408656447        0.14160545024360
H           -0.01439787203516       -1.60587401955416       -1.19077012902331
C            1.99178963396255        0.07666035381500       -1.72123196072797
O            0.79740046949561       -7.69773377786264       -1.26546365135197
H            0.38515579543908       -7.98238440182426       -2.10969509349817
O            1.11805273410183        0.63861966180366       -2.35610573735320
N            3.38501159445388       -1.89691693342642       -1.37373205939168
H            1.89929040583668       -1.74150553383080       -2.80801417189558
H            3.63150522388072       -1.46553721393494       -0.48795938731857
H            3.38468204333927       -2.89930469852434       -1.24006323488182
N            2.94462348104071        0.77502654296918       -0.93120641401743
C            4.04606170488875        1.51685272807517       -1.59224232466501
H            2.55725616300805        1.44760667434718       -0.26320696442612
C            3.64617105373803        2.94910012685922       -1.80110062425166
O            4.58014816445806        3.92948203204478       -1.63440225716445
O            2.34719163641532        3.20791865883924       -2.16949214154566
H            1.85319497867590        2.35178225719702       -2.26286448471804
C            4.47755980339863        0.84848306884258       -2.91127617638734
H            4.89764127128948        1.49351644746112       -0.89649776901985
C            5.93670003757544        0.93701305635050       -3.23246805774842
H            3.88992727985218        1.26470520118634       -3.73568123360330
H            4.20806661733404       -0.21173644836134       -2.86455692519277
C            6.84896649410152        2.00661659125223       -2.97674880503685
C            6.71827555146690        3.26103714556028       -2.36774410264128
C            7.80481132138580        4.07804680130003       -2.27527652274764
C            9.05359018511981        3.68123930981109       -2.78050788142949
C            9.21410712671820        2.46386963994022       -3.38339032636431
C            8.10436958444523        1.61474287384056       -3.48597675872351
H            5.61272148695156        3.61097357781879       -1.96411395555856
H            7.69956459925895        5.04516173269001       -1.81250649968561
H            9.89487476167810        4.34874175798349       -2.69420156595245
H           10.16396411010763        2.15042886518539       -3.77784187693181
N            7.95451259952836        0.35673673402074       -4.03867354382036
C            6.64919034225565       -0.03870448985963       -3.88620419954587
H            8.69977726665392       -0.17218024331809       -4.49537088342305
H            6.24885834517540       -0.97910560874950       -4.22909657196361
