48
Energy =
C    -2.6967139    0.4795217   -3.4825635 
C    -1.7546829   -0.1476704   -2.7337564 
C    -2.3865845    0.9447602   -4.7219306 
C    -1.1335024    0.7796113   -5.2028150 
C    -0.1879593    0.1518891   -4.4588324 
C    -0.4928020   -0.3171540   -3.2176946 
H    -2.0182148   -0.5101602   -1.7439128 
H    -0.8967379    1.1582256   -6.1911492 
H     0.8109963    0.0312252   -4.8659922 
H    -3.6983866    0.6086345   -3.0874399 
C     0.5625363   -1.0052244   -2.3756871 
C     1.4522413   -0.0188452   -1.5783864 
H     1.2012557   -1.6419436   -3.0268723 
H     0.0792557   -1.7118863   -1.6650595 
C     2.3249481    0.8436449   -2.4825430 
O    -3.3350159    1.5932773   -5.5200856 
H    -4.2459640    1.6860568   -5.0846390 
O     2.1922138    2.2289440   -2.4937504 
N     0.6428764    0.7859398   -0.6469701 
H     2.1668205   -0.6164132   -0.9721889 
H     0.0300985    1.4475442   -1.1822944 
H     0.0205546    0.1634934   -0.0813755 
N     3.3872453    0.2459069   -3.2402775 
C     4.7639428    0.4935344   -2.7776263 
H     3.1653409   -0.3578156   -4.0628433 
C     5.5104237    1.3974328   -3.7603822 
O     6.3634789    0.8418236   -4.7098623 
O     5.3468056    2.7827453   -3.7415854 
H     4.6103180    3.0630751   -3.1073483 
C     5.4817037   -0.8600435   -2.5784783 
H     4.7645315    1.0318073   -1.8009157 
C     4.7927502   -1.7161768   -1.5408817 
H     6.5372400   -0.6914489   -2.2686331 
H     5.5224805   -1.4085831   -3.5470898 
C     4.8559165   -1.5729374   -0.2080190 
C     5.5512176   -0.6780609    0.5392745 
C     5.4288775   -0.7343868    1.8966019 
C     4.6218933   -1.6724977    2.4792340 
C     3.9323440   -2.5604358    1.7077449 
C     4.0719706   -2.4858716    0.3676442 
H     6.1905055    0.0685004    0.0777547 
H     5.9744963   -0.0284232    2.5184362 
H     4.5284486   -1.7094929    3.5618029 
H     3.2856924   -3.3084411    2.1535558 
N     3.4346768   -3.2970233   -0.6095903 
C     3.9545924   -2.7299151   -1.8193181 
H     2.7600900   -4.0853755   -0.4779439 
H     3.6883379   -3.0638811   -2.8196978 
