48
Energy =
C     3.7738427    1.7639234    1.7097005 
C     2.6724624    2.3440610    1.1673887 
C     3.7075790    0.4978561    2.2012271 
C     2.5398794   -0.1807393    2.1429760 
C     1.4384646    0.3900983    1.5936853 
C     1.4974338    1.6576561    1.1006976 
H     2.7455344    3.3564382    0.7712077 
H     2.5000329   -1.1888622    2.5398339 
H     0.5114220   -0.1750895    1.5507904 
H     4.7083600    2.3152809    1.7440439 
C     0.2712898    2.2913473    0.4741034 
C     0.1931748    2.1058653   -1.0624740 
H     0.2578534    3.3800202    0.7119435 
H    -0.6499581    1.8780877    0.9402018 
C     1.3484906    2.7857651   -1.7813093 
O     4.8212547   -0.1298653    2.7680162 
H     5.6667265    0.4300723    2.7289838 
O     1.5767132    4.1402954   -1.5751627 
N     0.0592985    0.6807504   -1.4170333 
H    -0.7125110    2.6439393   -1.4272183 
H     0.9352417    0.1652926   -1.1634055 
H    -0.7290081    0.2494844   -0.8797482 
N     2.1727239    2.0777234   -2.7144731 
C     3.5491988    1.7778823   -2.2823107 
H     1.7773200    1.8415321   -3.6522258 
C     4.4385876    3.0241053   -2.2646404 
O     5.1388774    3.3420759   -1.1051781 
O     4.6296023    3.8091828   -3.4028033 
H     3.9674338    3.5603409   -4.1221791 
C     4.1207548    0.6632805   -3.1805642 
H     3.5275270    1.3930328   -1.2396484 
C     5.4825548    0.2128790   -2.7009086 
H     4.1857509    1.0167252   -4.2337730 
H     3.4263116   -0.2061536   -3.1795884 
C     5.7401299   -0.5927453   -1.6589965 
C     4.8840596   -1.2239149   -0.8152500 
C     5.4081418   -1.9700668    0.1986403 
C     6.7628444   -2.0713958    0.3536967 
C     7.6029261   -1.4275486   -0.5055138 
C     7.0605598   -0.6978438   -1.5027595 
H     3.8081012   -1.1327858   -0.9273121 
H     4.7461930   -2.4711734    0.9006173 
H     7.1702030   -2.6578570    1.1732587 
H     8.6795122   -1.4884631   -0.3898214 
N     7.7503647    0.0722359   -2.4774231 
C     6.6529184    0.6398320   -3.2065462 
H     8.7796975    0.1866191   -2.6229026 
H     6.7552451    1.3578542   -4.0193514 
