48
 energy: -9.004434937094 gnorm: 0.000412519744 xtb: 6.6.0 (2ccbbd7)
C           -0.66401283903808        5.66175910058725        1.09171472732260
C           -0.55227899294528        4.33821264968099        1.45258775226795
C            0.19423691691477        6.21892015006271        0.14139783261433
C            1.16589908411976        5.39608673002316       -0.42906740689563
C            1.25871564714448        4.08104694108674       -0.06010918185295
C            0.41089957003690        3.52023566675802        0.87578851909967
H           -1.21228034735944        3.92616501519878        2.19656438352617
H            1.84284048205299        5.81402874562396       -1.15220397148602
H            2.09177500950300        3.31976036347815       -0.52221632358869
H           -1.41432757448720        6.28456921644709        1.54502642165914
C            0.56720844999818        2.08987748867629        1.31103199811597
C            0.92876139866657        1.10033790469102        0.18744234609760
H           -0.36049615415101        1.76130282299467        1.78995040664132
H            1.33773653918312        2.03518818702449        2.08586796204105
C            2.34255736923226        1.26505016092510       -0.24833169084384
O            0.10620692008749        7.54429154013804       -0.24025576387853
H           -0.61016298029591        7.99065562022485        0.26149693354300
O            2.80047080068037        2.49914485552429       -0.82922527493794
N            0.67656195405524       -0.28422183096789        0.58079562253871
H            0.28830430734500        1.31315184972061       -0.68300107920743
H            1.29623258382642       -0.52603494892057        1.34257609671162
H           -0.27169437830411       -0.39422967587200        0.91730026413348
N            3.30809147827755        0.24719784549871       -0.09012989509468
C            4.66687762268136        0.57343036747152       -0.54047763499216
H            3.02686194595850       -0.66149007251402       -0.45412571277936
C            5.05698755147351        1.94231489410049       -0.05882606396909
O            4.17798137628988        2.92485290726101       -0.21661337621374
O            6.29921975282760        2.12657003645351        0.51213275035139
H            6.79094439528001        1.27744021527517        0.56147659112644
C            4.77554978555151        0.50342744595563       -2.06274900623074
H            5.34915693274182       -0.16424223082164       -0.09201464980497
C            4.41801816418476       -0.83968008829193       -2.60013135144820
H            5.78732598888540        0.77476023441680       -2.38125001300600
H            4.11151555877771        1.26044782741083       -2.49121728289526
C            3.11507266550480       -1.27413289358191       -2.98711926500471
C            1.87056508290548       -0.62336006101046       -3.04897606705681
C            0.77473373006421       -1.34041980509802       -3.44234997210013
C            0.87936564284620       -2.70014474957063       -3.78032425482242
C            2.07999848994673       -3.35453571730293       -3.72446119006996
C            3.21473218109917       -2.63836075497845       -3.32236589762650
H            1.79615889058889        0.41444918141441       -2.77720477211200
H           -0.18703811053458       -0.85721951919484       -3.49125271114926
H           -0.00373947535587       -3.23647265205129       -4.08620192370321
H            2.16792787646212       -4.39629496405083       -3.97620144287086
N            4.53443046934156       -3.01552935187352       -3.14104126498304
C            5.24864285447557       -1.92891410748612       -2.69775112320801
H            4.89414375718536       -3.96099720040539       -3.28462283267445
H            6.29630693713718       -1.94064479003422       -2.44475061393590
