48
 energy: -9.290532281902 gnorm: 0.000584784291 xtb: 6.6.0 (2ccbbd7)
C           -3.32874333208549        0.82842744011990        2.24120042737794
C           -1.96343028335407        0.70477364579295        2.13708407496884
C           -3.96533671869329        2.01201353162764        1.86576610858060
C           -3.18090133623128        3.06047238890608        1.38590888598033
C           -1.81660084717408        2.92901131705854        1.28459800833021
C           -1.18686623867225        1.75235805471574        1.66238874307046
H           -1.48349551543470       -0.21531554786964        2.42376699032249
H           -3.67132233474613        3.97248583870748        1.09585285067210
H           -1.22258968559809        3.74328260089201        0.90634504522920
H           -3.92070264119348        0.01090200899643        2.61196686007881
C            0.29333471575151        1.60008348627048        1.50498790434793
C            0.71686052861286        1.35989467020066        0.05515016816402
H            0.65024669867321        0.76483177379764        2.11488380484318
H            0.79976197085375        2.48794969046907        1.89717606918355
C            2.21349039847837        1.21393424879722       -0.03789117223168
O           -5.33583682049196        2.16670039953582        1.95330305117929
H           -5.74353512995664        1.35002301036493        2.31468611961398
O            2.74379560019280        0.31498943586045        0.58077705208612
N            0.10887919873712        0.16487333801722       -0.51106670601930
H            0.40617184753919        2.21812142045258       -0.55958604215094
H            0.50007840235310       -0.63870539954071       -0.03853394539197
H           -0.88835061930012        0.16524320120359       -0.34145993847154
N            2.91673594053854        2.07212239132006       -0.85726936994413
C            4.24405701394624        1.67384343717405       -1.28939724978677
H            2.41848331506086        2.62017285073518       -1.55985679522218
C            4.97312269455381        2.81789343777236       -1.96853511797915
O            5.80003966155984        2.55375930268855       -2.81441498826442
O            4.65441270261065        4.06596928590857       -1.54833947817954
H            3.99393107520377        4.02522298204350       -0.81815282545889
C            4.14279638600985        0.43934649965317       -2.19058840953341
H            4.80501559140418        1.41676926603634       -0.37812409607034
C            3.20010884799419        0.62857310154997       -3.33243931211287
H            3.80241164775365       -0.41418570608420       -1.59383687417194
H            5.13583672915663        0.18199716485986       -2.57225631355849
C            3.53069238133268        1.05825116766843       -4.65301334998709
C            4.73775336309262        1.44354414045807       -5.26133946876285
C            4.71976177466316        1.83008327305196       -6.57256555882295
C            3.52284953717779        1.85106967641873       -7.30675552726762
C            2.33279542427182        1.49980787712073       -6.73066608590663
C            2.33015733683649        1.10420365909559       -5.38704466463899
H            5.63812996384920        1.49131121850746       -4.67381840470717
H            5.63594641283087        2.14112286085024       -7.04669618667689
H            3.54282447000121        2.16231156737986       -8.33807537245760
H            1.40930014455339        1.52772425279218       -7.28062343989308
N            1.30703975307624        0.74129864117318       -4.53009950385274
C            1.83539631236478        0.47508619601376       -3.29322567548019
H            0.31764149782395        0.71831722775425       -4.78372103873327
H            1.24728078504049        0.24974455671433       -2.41650038623749
