48
Energy =
C    -2.7208979    2.2119541    1.0414265 
C    -1.5091242    2.4792035    0.4914424 
C    -3.0927540    0.9265325    1.2846115 
C    -2.2491454   -0.0835072    0.9731619 
C    -1.0368141    0.1778000    0.4231838 
C    -0.6572715    1.4630105    0.1840747 
H    -1.2261075    3.5113919    0.2992594 
H    -2.5590844   -1.1041559    1.1677922 
H    -0.3769653   -0.6478100    0.1717522 
H    -3.3920299    3.0284986    1.2850383 
C     0.6870482    1.7590162   -0.4399184 
C     0.5838695    2.0156470   -1.9605160 
H     1.3910405    0.9231003   -0.2485700 
H     1.1292442    2.6503373    0.0613825 
C     1.9114309    2.4933920   -2.5156453 
O    -4.3335728    0.6162758    1.8505846 
H    -4.9083577    1.4271057    2.0526516 
O     2.1890632    3.8538610   -2.5392212 
N     0.1128873    0.8108684   -2.6680244 
H    -0.1275256    2.8564167   -2.1455699 
H     0.6379238   -0.0327593   -2.3357274 
H    -0.8979346    0.6482166   -2.4450277 
N     2.9661732    1.5646158   -2.7905034 
C     4.1181852    1.5634305   -1.8685394 
H     2.8725111    0.9432992   -3.6245512 
C     5.1828116    2.5850285   -2.2669677 
O     5.8697951    3.2601444   -1.2641753 
O     5.5752046    2.7778725   -3.5927103 
H     4.9789021    2.2747507   -4.2305944 
C     4.7152734    0.1419822   -1.7935204 
H     3.7872437    1.8618390   -0.8471285 
C     3.7233237   -0.8486676   -1.2258263 
H     5.6278219    0.1437864   -1.1548152 
H     5.0399156   -0.1851685   -2.8068986 
C     3.3823468   -0.9942760    0.0640102 
C     3.8368442   -0.3396706    1.1632995 
C     3.2936892   -0.6535697    2.3742929 
C     2.3158135   -1.6051884    2.4672478 
C     1.8761605   -2.2502024    1.3496019 
C     2.4304453   -1.9235227    0.1634033 
H     4.6106910    0.4193824    1.0907520 
H     3.6395535   -0.1434678    3.2705412 
H     1.8867586   -1.8481536    3.4364329 
H     1.0984497   -3.0043912    1.4057433 
N     2.0960581   -2.4469841   -1.1140271 
C     2.9775680   -1.6942027   -1.9581916 
H     1.3892714   -3.1745258   -1.3700154 
H     3.0154995   -1.7821448   -3.0416089 
