48
Energy =
C    -2.3138166    4.7600141   -4.6744282 
C    -1.0049535    4.4084883   -4.5994420 
C    -3.2051400    4.2746649   -3.7688554 
C    -2.7805214    3.4392219   -2.7940533 
C    -1.4739146    3.0853129   -2.7135315 
C    -0.5763418    3.5712104   -3.6152099 
H    -0.3034912    4.7992175   -5.3329675 
H    -3.5006859    3.0548563   -2.0803361 
H    -1.1518171    2.4044881   -1.9288100 
H    -2.6461383    5.4288177   -5.4613046 
C     0.8801477    3.1644920   -3.5361933 
C     1.2613047    1.8439981   -4.2860986 
H     1.1700195    3.1060045   -2.4605374 
H     1.5156112    3.9919705   -3.9256365 
C     1.9985511    0.8841548   -3.3685327 
O    -4.5600783    4.6161838   -3.8184822 
H    -4.7997179    5.2463539   -4.5763098 
O     1.3968344    0.4656966   -2.1852633 
N     0.1107654    1.1708880   -4.9131236 
H     1.9900212    2.1025470   -5.0921973 
H    -0.5802889    0.8790929   -4.1813809 
H    -0.3639092    1.8088843   -5.5931486 
N     3.4106059    0.7009123   -3.5205635 
C     4.2679217    1.4291586   -2.5694393 
H     3.7594841    0.0524628   -4.2619442 
C     4.1032477    2.9376934   -2.7328945 
O     4.2719263    3.5170928   -3.9842936 
O     3.7298217    3.7583915   -1.6688601 
H     3.7159882    3.2638617   -0.7895767 
C     5.7317883    0.9913641   -2.7743445 
H     3.9551196    1.1531228   -1.5364487 
C     6.6316027    1.5178371   -1.6767902 
H     6.0925764    1.3243077   -3.7729753 
H     5.7836043   -0.1201935   -2.7751586 
C     7.3366623    2.6614305   -1.6805880 
C     7.4586742    3.6101398   -2.6446785 
C     8.2425657    4.6964852   -2.3899590 
C     8.8868070    4.8180036   -1.1901015 
C     8.7493109    3.8541172   -0.2361192 
C     7.9679983    2.7886201   -0.5114873 
H     6.9425757    3.5240524   -3.5963573 
H     8.3489260    5.4727607   -3.1440358 
H     9.5064682    5.6894947   -0.9944406 
H     9.2494449    3.9381799    0.7227053 
N     7.6854948    1.6889928    0.3429343 
C     6.8083569    0.9165185   -0.4867526 
H     8.0266545    1.4989998    1.3132906 
H     6.3421154   -0.0189082   -0.1854051 
