48
Energy =
C    -2.4876765    2.8691588   -2.0516545 
C    -1.2026485    2.7869213   -1.6242740 
C    -3.5093418    2.5728554   -1.2043949 
C    -3.2365144    2.1975603    0.0664103 
C    -1.9526925    2.1135740    0.4986589 
C    -0.9277392    2.4098051   -0.3455090 
H    -0.3930456    3.0237820   -2.3104944 
H    -4.0594455    1.9633449    0.7325224 
H    -1.7521840    1.8039962    1.5209377 
H    -2.6957691    3.1708013   -3.0721032 
C     0.5075337    2.2867139    0.1124977 
C     1.1426998    0.9492777   -0.3437304 
H     0.5918162    2.3913667    1.2158550 
H     1.0879849    3.1397944   -0.3090798 
C     2.6624102    0.9786005   -0.3288228 
O    -4.8449982    2.6434022   -1.6143243 
H    -4.9660081    2.9503734   -2.5729321 
O     3.2797826    1.9985253    0.0152633 
N     0.6405094   -0.1687674    0.4722069 
H     0.8777188    0.7736777   -1.4084948 
H     0.8337276    0.0232678    1.4837367 
H    -0.3969116   -0.2469333    0.3589429 
N     3.3983816   -0.1106015   -0.9087221 
C     4.6019342    0.2937273   -1.6552632 
H     3.0520622   -1.0913056   -0.8117633 
C     4.9398984    1.7542884   -1.3592288 
O     5.8895281    2.4252746   -2.1254297 
O     4.3470380    2.3511373   -0.4489074 
H     4.1905851    1.8757755    0.4172051 
C     4.3958696    0.0241843   -3.1618763 
H     5.4685933   -0.3013787   -1.2959265 
C     3.2026297    0.7696606   -3.7288911 
H     4.2851041   -1.0677664   -3.3269121 
H     5.3116762    0.3271902   -3.7185365 
C     1.9595442    0.2921647   -3.9062735 
C     1.4528720   -0.9418905   -3.6484174 
C     0.1263626   -1.1595829   -3.8781984 
C    -0.6662196   -0.1540206   -4.3572947 
C    -0.1367901    1.0756396   -4.6110761 
C     1.1783235    1.2668418   -4.3769653 
H     2.0728840   -1.7392115   -3.2518044 
H    -0.3047127   -2.1364131   -3.6718664 
H    -1.7241895   -0.3344918   -4.5314400 
H    -0.7538130    1.8861715   -4.9834845 
N     1.9080249    2.4746363   -4.5322948 
C     3.2086973    2.0685722   -4.0815763 
H     1.5874078    3.4080065   -4.8790070 
H     4.0698583    2.7323415   -3.9969159 
