48
Energy =
C     1.7348525   -4.8086883    2.5371010 
C     1.3656903   -3.5131348    2.3715930 
C     1.5163157   -5.7139735    1.5460214 
C     0.9284488   -5.3156905    0.3950448 
C     0.5573660   -4.0218031    0.2240014 
C     0.7716201   -3.1123233    1.2137674 
H     1.5517635   -2.8007469    3.1712216 
H     0.7594549   -6.0465213   -0.3880886 
H     0.0883646   -3.7208523   -0.7092390 
H     2.2067545   -5.1186100    3.4632136 
C     0.3764011   -1.6659249    1.0141049 
C     1.3837512   -0.8984435    0.1223021 
H     0.2635849   -1.1437451    1.9908443 
H    -0.6338356   -1.6343710    0.5458865 
C     0.8712224    0.4865555   -0.2528381 
O     1.8874139   -7.0556177    1.6832768 
H     2.3124539   -7.2764374    2.5771566 
O    -0.2454744    1.0159502    0.3839757 
N     2.6949047   -0.8023363    0.7875032 
H     1.4957468   -1.4469587   -0.8418188 
H     2.5787356   -0.4047735    1.7506593 
H     3.1100934   -1.7582981    0.8894568 
N     1.3444794    1.1378076   -1.4370414 
C     2.7349610    1.6327436   -1.4390839 
H     0.7085918    1.1794506   -2.2633639 
C     2.8296964    3.0460198   -1.9865569 
O     3.0830596    4.1096095   -1.1289947 
O     2.6970360    3.2852071   -3.3531106 
H     2.4739624    2.2898566   -3.8931994 
C     3.6449613    0.6550405   -2.2189704 
H     3.1193054    1.7066164   -0.3937583 
C     3.3584788    0.5149442   -3.7131788 
H     3.5700233   -0.3485882   -1.7495468 
H     4.6999321    0.9897721   -2.0986719 
C     4.0365431   -0.3216511   -4.5065953 
C     5.1070329   -1.1068119   -4.2056206 
C     5.6316813   -1.8979435   -5.1832852 
C     5.0820703   -1.8994946   -6.4327451 
C     4.0054593   -1.1109478   -6.7057771 
C     3.5072338   -0.3315604   -5.7195811 
H     5.5458982   -1.1107613   -3.2120981 
H     6.4893971   -2.5306893   -4.9668556 
H     5.5015392   -2.5337829   -7.2099963 
H     3.5518188   -1.1078104   -7.6912399 
N     2.3770663    0.5202252   -5.8222684 
C     2.2253385    1.1864504   -4.5093608 
H     1.8067599    0.6573276   -6.6923077 
H     2.0786860    2.1701534   -5.0082311 
