48
Energy =
C    -2.8586902    1.6723614   -1.1224346 
C    -1.7241341    1.3403733   -1.7882678 
C    -3.6026233    2.7357537   -1.5280890 
C    -3.2019788    3.4633823   -2.5954300 
C    -2.0661944    3.1377243   -3.2631164 
C    -1.3229891    2.0681040   -2.8671371 
H    -1.1309561    0.4980503   -1.4427456 
H    -3.8010693    4.3127867   -2.9053507 
H    -1.7574660    3.7394138   -4.1140725 
H    -3.1656241    1.0886508   -0.2615898 
C    -0.0470289    1.7172257   -3.6014791 
C     1.1677007    2.5252548   -3.0726044 
H    -0.1942472    1.9195566   -4.6854527 
H     0.1624334    0.6266848   -3.5232312 
C     1.5771436    2.0787455   -1.6851256 
O    -4.7803638    3.1019481   -0.8681401 
H    -4.9985547    2.5248819   -0.0631183 
O     0.8473869    2.4819350   -0.5737536 
N     2.2987194    2.4109310   -4.0183760 
H     0.8978344    3.6021859   -2.9613127 
H     2.5186895    1.3947970   -4.1532822 
H     1.9580388    2.6996051   -4.9680490 
N     2.5536953    1.0463313   -1.5313470 
C     3.9638586    1.3729716   -1.8320357 
H     2.2248662    0.0856536   -1.2896570 
C     4.1835585    2.6888237   -2.6303406 
O     3.3492505    3.1364934   -3.6972216 
O     5.2857639    3.4966103   -2.3336708 
H     5.8825364    3.1023690   -1.6227850 
C     4.6267638    0.1533948   -2.5122080 
H     4.4623658    1.5219462   -0.8494672 
C     6.1236203    0.3227536   -2.6520390 
H     4.1694277   -0.0398035   -3.5043438 
H     4.4324522   -0.7559573   -1.9014399 
C     6.7863690    0.8428397   -3.6983275 
C     6.3164833    1.3201789   -4.8798452 
C     7.2127888    1.8118371   -5.7822608 
C     8.5496205    1.8197937   -5.4947327 
C     8.9983182    1.3386204   -4.3007514 
C     8.0920389    0.8571501   -3.4241918 
H     5.2546193    1.3302881   -5.1071714 
H     6.8600482    2.2081887   -6.7311770 
H     9.2563177    2.2188001   -6.2178143 
H    10.0544671    1.3451114   -4.0541450 
N     8.3460897    0.3294265   -2.1294814 
C     7.0174567    0.0127749   -1.6964993 
H     9.2572416    0.2069615   -1.6310264 
H     6.7734536   -0.4084451   -0.7243112 
