48
Energy =
C    -2.8746760   -2.3213452    0.3206949 
C    -1.7105690   -1.9699785    0.9234686 
C    -3.6365955   -1.3789762   -0.2961414 
C    -3.2279108   -0.0901553   -0.3049126 
C    -2.0663681    0.2671007    0.2982996 
C    -1.2988344   -0.6718529    0.9179170 
H    -1.1104578   -2.7344811    1.4108124 
H    -3.8416476    0.6520586   -0.8036209 
H    -1.7547399    1.3086194    0.2753639 
H    -3.1941378   -3.3578746    0.3321651 
C     0.0096938   -0.2900232    1.5788910 
C     1.2300517   -0.6472940    0.6939806 
H     0.0782051   -0.8220090    2.5530120 
H     0.0303488    0.7966805    1.8245191 
C     1.3736242    0.2611595   -0.5241299 
O    -4.8405546   -1.7077479   -0.9271572 
H    -5.0780201   -2.6923821   -0.8768869 
O     0.6179039    1.4214849   -0.6437711 
N     2.4550619   -0.6182191    1.5082382 
H     1.0987128   -1.6780743    0.2909632 
H     2.6129068    0.3493986    1.8851751 
H     2.3678511   -1.2681146    2.3244363 
N     2.1449515   -0.1608687   -1.6538267 
C     3.6133211   -0.1440199   -1.5093879 
H     1.6389340   -0.4788120   -2.5105907 
C     4.1524587    1.2406998   -1.1630441 
O     4.6292032    1.5022353    0.1178929 
O     4.2062767    2.2401976   -2.1292670 
H     3.7148315    1.8345520   -3.0976877 
C     4.2721605   -0.6998050   -2.7917944 
H     3.9038315   -0.8162370   -0.6712032 
C     4.0281945    0.1227666   -4.0590807 
H     3.8939425   -1.7326892   -2.9577970 
H     5.3709798   -0.7723633   -2.6247821 
C     4.4755468   -0.2464088   -5.2624127 
C     5.2668607   -1.3024991   -5.5945590 
C     5.5881638   -1.4898135   -6.9058602 
C     5.1141568   -0.6328928   -7.8570275 
C     4.3160749    0.4110100   -7.4980117 
C     4.0159877    0.5755801   -6.1902998 
H     5.6441450   -1.9869733   -4.8404466 
H     6.2229133   -2.3238273   -7.1954809 
H     5.3711640   -0.7851240   -8.9023561 
H     3.9247612    1.0978629   -8.2411807 
N     3.1814908    1.5834438   -5.6489251 
C     3.1673479    1.3962277   -4.1879542 
H     2.6753973    2.3234010   -6.1878858 
H     3.3268032    2.4878343   -4.0935756 
