48
Energy =
C     0.7873000   -2.9992247   -2.0170983 
C     1.0396147   -2.3123321   -0.8746237 
C    -0.4524883   -2.9708792   -2.5732297 
C    -1.4351379   -2.2575347   -1.9783552 
C    -1.1909441   -1.5726069   -0.8325214 
C     0.0494742   -1.5967442   -0.2722193 
H     2.0433900   -2.3284533   -0.4497579 
H    -2.4200532   -2.2426881   -2.4321867 
H    -1.9938273   -1.0041470   -0.3705369 
H     1.5790851   -3.5700386   -2.4856979 
C     0.3293827   -0.8289701    1.0034332 
C     0.9737310    0.5567131    0.7625540 
H     1.0097585   -1.4313969    1.6481124 
H    -0.6055046   -0.7027594    1.5919012 
C     2.3116113    0.4520335    0.0481594 
O    -0.7425385   -3.6635768   -3.7531488 
H     0.0489060   -4.1638596   -4.1419826 
O     3.3510950   -0.2085323    0.6937450 
N     0.0305943    1.4741763    0.0978964 
H     1.2381211    0.9853818    1.7578464 
H    -0.2842830    1.0769275   -0.8174734 
H    -0.8244082    1.5889916    0.6913514 
N     2.4465774    0.7286500   -1.3533652 
C     3.6499001    1.4752370   -1.7680130 
H     1.6745824    0.4865846   -2.0131992 
C     3.3659473    2.9564697   -2.0399740 
O     4.1888889    3.6486891   -2.9218234 
O     2.3781219    3.6757518   -1.3690697 
H     1.8560404    3.0943717   -0.7321074 
C     4.2793485    0.7917521   -3.0111578 
H     4.4013103    1.4919158   -0.9491479 
C     4.2416619   -0.7269573   -3.0035371 
H     5.3334343    1.1275171   -3.1287654 
H     3.7452630    1.1528556   -3.9199404 
C     4.8338253   -1.5690508   -2.1375096 
C     5.5642587   -1.3111717   -1.0236001 
C     6.0543280   -2.3637217   -0.3064013 
C     5.8202570   -3.6466082   -0.7159343 
C     5.0927446   -3.8842155   -1.8431392 
C     4.6131541   -2.8263049   -2.5300267 
H     5.7363366   -0.2975893   -0.6851280 
H     6.6251375   -2.1805045    0.6014962 
H     6.2135834   -4.4804900   -0.1394537 
H     4.9006614   -4.8955348   -2.1852065 
N     3.8476809   -2.8608996   -3.7243054 
C     3.6405755   -1.4629787   -3.9566735 
H     3.5079785   -3.6823743   -4.2748861 
H     3.0982037   -1.0592056   -4.8091738 
