48
 energy: -8.855975486648 gnorm: 0.000668440797 xtb: 6.6.0 (2ccbbd7)
C            7.06311992904049        1.15175523805181        2.38899524317628
C            5.76134075375344        1.64816140206245        2.43198208282741
C            7.70286167613790        0.86301939400903        1.16275617375580
C            7.03594126589316        1.08538934999621       -0.00929364385492
C            5.63698569577764        1.62578342733291       -0.06530541028434
C            5.04176202768522        1.89552928362110        1.30658698110299
H            5.30373295604285        1.82990955438194        3.38935066813107
H            7.56577789284067        0.87435853127016       -0.92015845650713
H            5.35053562614523        1.47500990922967       -1.36175617204217
H            7.59760364178806        0.97230626825191        3.30396426119793
C            3.61687158011381        2.32673388300752        1.39274841396775
C            2.60967222232749        1.16417527781458        1.19809276319742
H            3.42331373324361        3.10390359645306        0.64475842824176
H            3.45463541044985        2.81496038866253        2.36013297338672
C            1.90686773430506        1.20247308066780       -0.14537284176696
O            8.98958200649449        0.35768478401017        1.12327954333127
H            9.34745131846312        0.27830854367401        2.03356536146472
O            0.69146875281352        1.25620834742925       -0.12295134059031
N            3.16338076692144       -0.15831170847370        1.45788793015657
H            1.79389127998660        1.28842080888745        1.93334947174592
H            3.77794302663695       -0.45043193427950        0.71061060616359
H            3.69536929775215       -0.16511448048457        2.31920282703877
N            2.57645372521734        1.17275748972704       -1.35366827526650
C            4.04464830878539        1.36402786520767       -1.58787446814073
H            2.03591603019037        1.40450303752063       -2.18306698583096
C            4.14428149416160        2.86844464851601       -1.99213143867724
O            3.46185017935425        3.27048932019376       -2.90609562604046
O            5.04131719242134        3.57237369536939       -1.27749731691983
H            5.50199845535457        2.80730462957615       -0.59241712820470
C            4.33415326677389        0.45510310713945       -2.83293078300204
H            4.60397558274442        0.91896729507520       -0.48888968839793
C            5.74351386860649        0.53760816908338       -3.30842246844988
H            3.66678410036533        0.75584422220568       -3.64639384764990
H            4.07671222400470       -0.58222079741119       -2.60001918853034
C            6.79806742037704       -0.37371671256137       -3.00483087677708
C            6.83749129295274       -1.58783352119866       -2.29776943327397
C            8.04654529990736       -2.19898412618077       -2.11351657604217
C            9.23071308250313       -1.63347870818615       -2.61367358677219
C            9.21619756002647       -0.45227497672550       -3.30329553546311
C            7.98817352388331        0.18983549086304       -3.50499027607062
H            5.93035978553157       -2.01123166107346       -1.90498545083955
H            8.09518991563098       -3.12744505811633       -1.56911662262862
H           10.16765251284594       -2.13740222774173       -2.44307948229631
H           10.11979551220692       -0.00647668112575       -3.67873384109586
N            7.65954094379411        1.39675964872176       -4.09745783185388
C            6.30907521264735        1.60296803667837       -3.96388827231008
H            8.33228690338536        2.04687910432486       -4.50764149395734
H            5.78278751365473        2.49530182784324       -4.26608130511185
