48
Energy =
C     2.4627842    3.0066567    4.3333124 
C     2.1907453    2.5416610    3.0878622 
C     3.5331717    3.8193616    4.5406112 
C     4.3244934    4.1619403    3.4988955 
C     4.0569825    3.6997083    2.2509590 
C     2.9849112    2.8888268    2.0379726 
H     1.3331129    1.8903569    2.9377485 
H     5.1751115    4.8103475    3.6803208 
H     4.7060567    3.9781352    1.4237301 
H     1.8228108    2.7255229    5.1627842 
C     2.6934346    2.3554748    0.6535547 
C     3.1977720    0.9071646    0.4676063 
H     3.1533607    3.0066293   -0.1236733 
H     1.5952050    2.4029444    0.4705742 
C     2.6239469    0.2880514   -0.8006562 
O     3.8443722    4.3131990    5.8110103 
H     3.1988616    4.0212394    6.5370570 
O     1.9097213   -0.9020120   -0.6931292 
N     4.6699564    0.8961582    0.4515261 
H     2.8237967    0.2723484    1.3073015 
H     5.0248109    1.1477100    1.4034010 
H     4.9975787   -0.0858682    0.2906046 
N     2.4778969    1.0649925   -1.9990691 
C     3.7357636    1.1648170   -2.7722325 
H     1.7267216    0.6238384   -2.5794179 
C     3.6160693    2.3014749   -3.7802149 
O     3.1027320    2.0498492   -5.0473730 
O     3.9802633    3.6077571   -3.4532407 
H     4.2310324    3.6949492   -2.4804375 
C     4.0833723   -0.1719300   -3.4895925 
H     4.5777719    1.4535339   -2.1041247 
C     4.8410805   -1.1336444   -2.6016182 
H     4.7187719    0.0295792   -4.3820747 
H     3.1610422   -0.6455811   -3.8917730 
C     6.1309873   -1.0387249   -2.2432710 
C     7.0561422   -0.0995177   -2.5676581 
C     8.3145382   -0.2268151   -2.0574885 
C     8.6256365   -1.2787170   -1.2404536 
C     7.6795574   -2.2099460   -0.9288957 
C     6.4423699   -2.0622904   -1.4471967 
H     6.8089524    0.7378637   -3.2150967 
H     9.0736349    0.5125339   -2.3024138 
H     9.6313513   -1.3730870   -0.8383813 
H     7.9093600   -3.0499066   -0.2821989 
N     5.3182943   -2.9062023   -1.2426457 
C     4.3222987   -2.2332384   -2.0274491 
H     5.2391652   -3.7794436   -0.6720652 
H     3.2853646   -2.5561451   -2.1227161 
