48
Energy =
C    -0.5154678    0.6695953   -7.8648982 
C    -0.4002021    0.4231592   -6.5355832 
C     0.3962998    1.4565443   -8.4962140 
C     1.4194769    1.9909508   -7.7917338 
C     1.5396663    1.7486264   -6.4617653 
C     0.6270865    0.9643640   -5.8242546 
H    -1.1337811   -0.2135943   -6.0481051 
H     2.1426709    2.6136960   -8.3077139 
H     2.3740693    2.1855693   -5.9144226 
H    -1.3376687    0.2338630   -8.4218412 
C     0.7701019    0.6813064   -4.3449209 
C     1.8695757   -0.3708142   -4.0544842 
H    -0.1952642    0.3431998   -3.9082506 
H     1.0118686    1.6377170   -3.8302593 
C     2.2115364   -0.4232268   -2.5644704 
O     0.3055790    1.7304056   -9.8649000 
H    -0.4852783    1.2900556  -10.3218085 
O     1.9366219   -1.5775297   -1.8336967 
N     1.4553548   -1.6919656   -4.5575088 
H     2.8127078   -0.0889684   -4.5725110 
H     0.5444511   -1.9765718   -4.1256599 
H     1.3325686   -1.6613573   -5.5962927 
N     2.5961679    0.7656883   -1.8386193 
C     3.9406034    1.2941967   -2.1877840 
H     2.5945528    0.4995104   -0.8256276 
C     3.9076622    2.1014161   -3.4800942 
O     4.6481655    1.7008269   -4.5844738 
O     3.1121533    3.2391944   -3.5969543 
H     2.6197341    3.4303641   -2.7353927 
C     5.0476473    0.2021427   -2.1783266 
H     4.2180301    2.0528337   -1.4215530 
C     5.3101661   -0.3296289   -0.7869361 
H     5.9954196    0.6253533   -2.5817737 
H     4.7941763   -0.6327759   -2.8674450 
C     6.0090643    0.2775644    0.1852775 
C     6.6589905    1.4697512    0.1754156 
C     7.3027112    1.8663179    1.3108525 
C     7.2877865    1.0741591    2.4258985 
C     6.6294889   -0.1198932    2.4116361 
C     6.0008363   -0.4898787    1.2761918 
H     6.6743026    2.0986372   -0.7099960 
H     7.8314007    2.8166716    1.3286156 
H     7.8035623    1.3967182    3.3273787 
H     6.6076853   -0.7611091    3.2866485 
N     5.2631545   -1.6824331    1.0523371 
C     4.8493429   -1.4985645   -0.3085977 
H     5.0720284   -2.4828623    1.6982073 
H     4.2438199   -2.2090228   -0.8683679 
