48
Energy =
C     1.1248775    7.4652463   -3.9823348 
C     1.2640821    6.5565693   -2.9841646 
C     1.5587176    7.1754801   -5.2383182 
C     2.1300681    5.9728208   -5.4834226 
C     2.2761597    5.0584593   -4.4799378 
C     1.8415035    5.3482046   -3.2275625 
H     0.9105894    6.8045780   -1.9878781 
H     2.4603879    5.7518524   -6.4960449 
H     2.7268535    4.0548513   -4.6862134 
H     0.6647297    8.4234323   -3.7722138 
C     2.0046427    4.3384245   -2.1145785 
C     1.1374988    3.0536351   -2.2920071 
H     1.7716328    4.7934860   -1.1279313 
H     3.0888553    4.0619450   -2.0208768 
C     1.3413075    2.1308290   -1.1197078 
O     1.4272967    8.0908383   -6.2909010 
H     0.9919503    8.9622863   -6.0164861 
O     0.7512839    2.4299428    0.1085648 
N    -0.2916134    3.4141622   -2.4493402 
H     1.4977798    2.3781929   -3.1392362 
H    -0.5773119    4.0630755   -1.6786408 
H    -0.4226299    3.9067756   -3.3644349 
N     1.7892765    0.8002287   -1.3642542 
C     3.2294316    0.5282753   -1.5453650 
H     1.0898663    0.0400380   -1.2667270 
C     4.1721338    1.7136053   -1.3154597 
O     4.5082572    2.0498120   -0.0127624 
O     4.6837790    2.5026091   -2.3318672 
H     4.1447857    2.1819463   -3.2769939 
C     3.4053993   -0.3372941   -2.8294827 
H     3.5663666   -0.0947812   -0.6854578 
C     3.2210458    0.3372504   -4.1810792 
H     2.7132087   -1.1991569   -2.7900023 
H     4.4483595   -0.7278908   -2.8140703 
C     3.5067285   -0.2958897   -5.3319308 
C     3.3923786   -1.6192822   -5.6206486 
C     3.8269631   -2.0691135   -6.8333996 
C     4.3991994   -1.2027202   -7.7207822 
C     4.5463537    0.1120056   -7.3920287 
C     4.0884898    0.5356391   -6.1900797 
H     2.9534117   -2.3006038   -4.9029378 
H     3.7271129   -3.1201136   -7.0843144 
H     4.7573587   -1.5634554   -8.6797336 
H     5.0344784    0.8088823   -8.0616373 
N     4.2819599    1.8249287   -5.6318072 
C     3.5302583    1.7888896   -4.3807358 
H     4.8413414    2.6067945   -6.0209153 
H     2.5529557    2.2508802   -4.7606090 
