48
Energy =
C    -1.5404280   -1.5621796    2.2335322 
C    -0.2508914   -1.2870809    2.5601790 
C    -2.5399028   -0.7386572    2.6464591 
C    -2.2427646    0.3541831    3.3850167 
C    -0.9559112    0.6341191    3.7128210 
C     0.0510885   -0.1847173    3.2994823 
H     0.5421488   -1.9539896    2.2274237 
H    -3.0495200    1.0022139    3.7098718 
H    -0.7386367    1.5185443    4.3058574 
H    -1.7708707   -2.4411867    1.6408510 
C     1.4907469    0.1344291    3.6575049 
C     2.2504514    0.9530997    2.5782950 
H     2.0470683   -0.8085768    3.8611571 
H     1.5208246    0.6978200    4.6161881 
C     2.5961822    0.1560736    1.3188556 
O    -3.8773258   -0.9920820    2.3264759 
H    -4.0184129   -1.8284962    1.7707212 
O     2.5889041   -1.2350678    1.3525566 
N     1.5307651    2.1979488    2.2542205 
H     3.2373490    1.2261414    3.0180757 
H     0.6044511    1.9752926    1.8189772 
H     1.3511783    2.7374244    3.1333634 
N     3.2423099    0.7912338    0.2021051 
C     4.7174221    0.7059263    0.3195319 
H     2.9106366    1.7802967    0.1604130 
C     5.3134931    1.8052885    1.1995447 
O     5.9917481    1.4527099    2.3582666 
O     5.2223079    3.1576963    0.8677241 
H     4.6839191    3.3114368    0.0312167 
C     5.3317332    0.7205900   -1.0935182 
H     5.0134383   -0.2617564    0.7958018 
C     4.9562058   -0.5266407   -1.8636809 
H     6.4406540    0.7901881   -1.0292904 
H     4.9848094    1.6160839   -1.6522475 
C     5.5277827   -1.7368426   -1.7615745 
C     6.5697114   -2.1453459   -0.9929945 
C     6.9591402   -3.4501464   -1.0701972 
C     6.3077520   -4.3176239   -1.9032134 
C     5.2615930   -3.8851574   -2.6633624 
C     4.8964095   -2.5891529   -2.5704743 
H     7.0831858   -1.4609557   -0.3241825 
H     7.7881202   -3.8024575   -0.4613357 
H     6.6215673   -5.3572875   -1.9552217 
H     4.7294688   -4.5609437   -3.3242320 
N     3.8354198   -1.9440210   -3.2610487 
C     3.9359901   -0.6133415   -2.7355272 
H     3.1698645   -2.3327591   -3.9678801 
H     3.2545422    0.1979074   -2.9809265 
