48
 energy: -9.196354968316 gnorm: 0.000673356391 xtb: 6.6.0 (2ccbbd7)
C            2.84014956070229        4.30005149561641       -6.74087985169881
C            2.40213370391010        3.93369318308206       -5.49033350141362
C            3.26179275931899        3.33542143085531       -7.65599767057957
C            3.22494183443664        1.99749621355941       -7.26575475154217
C            2.78270349343321        1.64108196459661       -6.01453122591925
C            2.36431042526296        2.60151267522741       -5.10292006676219
H            2.08123627228479        4.68756577254752       -4.79192597848741
H            3.54870179553976        1.25304453435322       -7.97109225384554
H            2.75387695722585        0.60186312154562       -5.74196372011618
H            2.86296867205365        5.33679835386750       -7.02547778961882
C            1.89441298482205        2.25876992133677       -3.72531749132373
C            1.98407115632746        0.79579327735140       -3.31724960244914
H            0.88119071484712        2.62742309285766       -3.55952031990283
H            2.60199675114573        2.88034959691549       -2.91559258510183
C            1.80369644556958        0.67655131006404       -1.82297083404957
O            3.70741170696820        3.66783662798088       -8.92103618856715
H            3.68022656527777        4.64155603366813       -9.04184346268772
O            0.68859162815258        0.41421169511825       -1.41772114116659
N            0.99347819423758       -0.04302504405985       -3.99371774362786
H            2.96980685741212        0.40395677241934       -3.58540340314538
H            0.16533849022312       -0.08958730528630       -3.40557790853699
H            0.71292827688249        0.36082211174050       -4.87897269297147
N            2.83922189110156        0.89704609693444       -0.93621830235394
C            4.23413568253137        1.31274355327445       -1.21964640849229
H            2.60120858240997        0.90453321964615        0.05386038792626
C            4.36024258474789        2.78374326044436       -1.53586009950078
O            5.39251213353728        3.34614630076564       -1.24028717335857
O            3.28649956031216        3.46957818406824       -2.18843827685747
H            3.54935392076999        4.43051244916946       -2.43464076885842
C            4.99340652695318        0.44911405272174       -2.23977096951432
H            4.76381429849696        1.19404519149249       -0.26069247342762
C            4.63093197813509       -1.00081453302606       -2.20971229525988
H            6.07268859688377        0.55465281865922       -2.08234941087195
H            4.82762592539355        0.84998313820393       -3.24377150466472
C            4.49413596388172       -1.84361972244246       -1.06430529122849
C            4.66707742662944       -1.63733125011356        0.31642135342793
C            4.42837820416118       -2.67508891501215        1.17432409962557
C            4.02098826504175       -3.93217500190543        0.70065701316165
C            3.85461076773745       -4.16207942308817       -0.63697624407806
C            4.09470226915504       -3.11175339802924       -1.53159332866913
H            4.99049060084243       -0.68092308918192        0.68338919695344
H            4.55405852151222       -2.52800458606965        2.23423745631909
H            3.83744432121954       -4.72745270745509        1.40412182614127
H            3.54318310650986       -5.12086539754511       -1.01089002367393
N            4.01863354258268       -3.04484349015587       -2.91034312223585
C            4.34220421955665       -1.77316708944042       -3.30885103915413
H            3.72788600369735       -3.81477658116942       -3.51571051802729
H            4.35344109627225       -1.43642263419746       -4.33286793175306
