48
Energy =
C     3.5647483    5.1090719   -0.0239522 
C     2.5053902    4.2751857   -0.1840430 
C     3.8645070    6.0265982   -0.9823634 
C     3.1147383    6.0864847   -2.1066160 
C     2.0536579    5.2569280   -2.2709546 
C     1.7304132    4.3557413   -1.3016043 
H     2.2860761    3.5366237    0.5850822 
H     3.3798747    6.8022651   -2.8767335 
H     1.4716291    5.3156780   -3.1865082 
H     4.1723710    5.0413463    0.8720880 
C     0.5295261    3.4448896   -1.4730176 
C     0.8362281    2.2394818   -2.3915321 
H    -0.3105730    4.0339881   -1.9020378 
H     0.1722459    3.0753968   -0.4848646 
C     1.9061797    1.3233820   -1.8169953 
O     4.9267402    6.9248681   -0.8300838 
H     5.5010514    6.7482051   -0.0133407 
O     2.0721172    1.1950661   -0.4402791 
N    -0.4019500    1.4889671   -2.6634005 
H     1.2480698    2.6178305   -3.3565294 
H    -0.8111715    1.1405137   -1.7619968 
H    -1.1116215    2.1132711   -3.1145910 
N     2.8163830    0.6520321   -2.6928242 
C     4.2003263    1.1618447   -2.7140868 
H     2.4704646   -0.1553980   -3.2566386 
C     4.2633280    2.5936871   -3.2251462 
O     5.0144612    3.5276654   -2.5270260 
O     3.5772082    3.0041819   -4.3695524 
H     3.1968190    2.2122167   -4.8687388 
C     5.0927264    0.2318970   -3.5632790 
H     4.5948383    1.1965249   -1.6709074 
C     5.2781750   -1.1153878   -2.9019305 
H     6.0932896    0.6970561   -3.7141570 
H     4.6498534    0.1030046   -4.5757875 
C     6.0898826   -1.3971847   -1.8710865 
C     6.9425707   -0.5898889   -1.1889484 
C     7.6638596   -1.1284957   -0.1642587 
C     7.5238026   -2.4500004    0.1593082 
C     6.6613192   -3.2411659   -0.5403182 
C     5.9593832   -2.6851346   -1.5500850 
H     7.0540914    0.4600049   -1.4449120 
H     8.3527359   -0.5032561    0.3983899 
H     8.1012415   -2.8713833    0.9780687 
H     6.5370548   -4.2904389   -0.2957832 
N     5.0138725   -3.3263250   -2.3948341 
C     4.6178220   -2.2370513   -3.2389261 
H     4.6975040   -4.3226879   -2.3997134 
H     3.8800130   -2.3126423   -4.0334374 
