48
Energy =
C     0.8382180   -3.6963024   -7.3723879 
C     0.9977072   -2.6419041   -6.5224267 
C     1.3918700   -4.8988969   -7.0778946 
C     2.1055455   -5.0440469   -5.9440893 
C     2.2675620   -3.9947627   -5.0912358 
C     1.7000767   -2.7885086   -5.3628099 
H     0.5724520   -1.6814288   -6.7778047 
H     2.5446130   -6.0155276   -5.7478695 
H     2.8654662   -4.1021295   -4.1895087 
H     0.2773493   -3.5838620   -8.2925108 
C     1.9339659   -1.6456403   -4.3800413 
C     0.8940301   -0.4846191   -4.4111355 
H     2.9646408   -1.2519271   -4.5215733 
H     1.8963877   -2.0878055   -3.3555353 
C     0.8389732    0.2346385   -3.0787377 
O     1.2511789   -6.0006230   -7.9243966 
H     0.6995869   -5.8198533   -8.7545014 
O    -0.2683518    0.0450096   -2.2610910 
N     1.1630912    0.4819948   -5.4981176 
H    -0.1210643   -0.9295280   -4.5173088 
H     1.9741546    0.1693246   -6.0833823 
H     0.3217715    0.5812323   -6.1100420 
N     1.7571964    1.2826888   -2.7455426 
C     3.1315893    0.9031164   -2.3822889 
H     1.4207939    2.2701995   -2.7820402 
C     3.5316811    1.5328664   -1.0539846 
O     3.2806674    2.8830978   -0.8308986 
O     4.2433405    0.8197887   -0.0856155 
H     4.4040925   -0.1386842   -0.3569603 
C     4.0751766    1.3423544   -3.5175371 
H     3.1982301   -0.2020996   -2.2649014 
C     5.4484800    0.7296922   -3.3709343 
H     4.1344884    2.4511572   -3.5712737 
H     3.6406257    1.0061720   -4.4852537 
C     6.5035069    1.2470022   -2.7222439 
C     6.6335464    2.4334129   -2.0751416 
C     7.8244350    2.7174766   -1.4747810 
C     8.8572047    1.8226102   -1.5304500 
C     8.7040911    0.6371323   -2.1860549 
C     7.5157052    0.3791307   -2.7722035 
H     5.8140059    3.1442083   -2.0215121 
H     7.9487925    3.6582364   -0.9440003 
H     9.8017589    2.0553220   -1.0455873 
H     9.5113304   -0.0858013   -2.2347009 
N     7.1456980   -0.7935027   -3.4848378 
C     5.7864113   -0.4864708   -3.8321539 
H     7.7120145   -1.6477795   -3.6948066 
H     5.1100984   -1.1497147   -4.3775363 
