48
Energy =
C    -2.8587340    2.3107444   -1.3210066 
C    -1.7211467    2.4774846   -0.6002418 
C    -2.8140113    2.3128806   -2.6804816 
C    -1.6289057    2.4845587   -3.3095630 
C    -0.4893034    2.6552503   -2.5940665 
C    -0.5289992    2.6563432   -1.2327444 
H    -1.7709807    2.4584701    0.4849641 
H    -1.6005709    2.4769931   -4.3936981 
H     0.4542161    2.7742770   -3.1216342 
H    -3.8027360    2.1682564   -0.8071254 
C     0.7474020    2.7975145   -0.4311978 
C     1.3348912    1.4196923   -0.0457129 
H     0.5422211    3.3839398    0.4902602 
H     1.4964708    3.3809151   -1.0113511 
C     1.6802401    0.5820607   -1.2682089 
O    -3.9690039    2.1378181   -3.4513943 
H    -4.8137928    2.0205864   -2.9037252 
O     0.7742777   -0.4117676   -1.6078831 
N     2.5018742    1.6007325    0.8381841 
H     0.5538053    0.8293966    0.4926451 
H     3.1287082    2.3590509    0.4787129 
H     2.1717211    1.9044164    1.7848723 
N     2.6333380    1.1053254   -2.2208207 
C     3.0523320    0.3686012   -3.4498278 
H     3.4891754    1.3107439   -1.6594152 
C     3.0990122    1.3667186   -4.6027435 
O     1.9863510    1.5366612   -5.4202232 
O     4.2261301    2.1564132   -4.8398565 
H     4.9453387    2.0216866   -4.1454812 
C     2.2143270   -0.8772713   -3.8683383 
H     4.1031867    0.0314568   -3.3232261 
C     2.5337912   -2.1434000   -3.0816205 
H     2.4373168   -1.1224665   -4.9308621 
H     1.1373776   -0.6099945   -3.8677746 
C     1.6575551   -3.0495064   -2.5997580 
C     0.2980614   -3.0392864   -2.5879776 
C    -0.3593883   -4.1126241   -2.0600689 
C     0.3419565   -5.1749210   -1.5641748 
C     1.7038912   -5.1693849   -1.5889701 
C     2.3312581   -4.0931748   -2.1083431 
H    -0.2615513   -2.1837925   -2.9539881 
H    -1.4466686   -4.1194095   -2.0253863 
H    -0.1882101   -6.0270374   -1.1451253 
H     2.2756549   -6.0075048   -1.2044296 
N     3.7306915   -3.9154805   -2.2593919 
C     3.7757649   -2.6420967   -2.9130841 
H     4.5139587   -4.5502407   -1.9790438 
H     4.6914449   -2.1900639   -3.2848365 
