48
Energy =
C    -1.9104697    3.4244204   -4.6258089 
C    -1.4337002    2.1744566   -4.8557617 
C    -2.4006921    3.7545647   -3.4010490 
C    -2.4071056    2.8315288   -2.4126225 
C    -1.9326491    1.5804124   -2.6371214 
C    -1.4494652    1.2415300   -3.8642434 
H    -1.0381287    1.9263969   -5.8372895 
H    -2.7929080    3.1085291   -1.4374880 
H    -1.9348890    0.8555273   -1.8256421 
H    -1.8965815    4.1603412   -5.4224730 
C    -0.8940817   -0.1446802   -4.1115518 
C     0.6314952   -0.1984720   -3.8800804 
H    -1.1270624   -0.4560569   -5.1529982 
H    -1.3964295   -0.8834492   -3.4458210 
C     0.9844334    0.0971762   -2.4314997 
O    -2.9012411    5.0323525   -3.1324787 
H    -2.8487424    5.6709478   -3.9183985 
O     0.4222986   -0.6560377   -1.4038079 
N     1.1543616   -1.5143615   -4.2928627 
H     1.1201064    0.5967465   -4.4916722 
H     0.6342414   -2.2639004   -3.7725505 
H     0.9613886   -1.6608819   -5.3123696 
N     1.9874149    1.0731941   -2.1126832 
C     3.1910316    0.4157660   -1.5493869 
H     1.5388659    1.6743037   -1.3813618 
C     3.9792207    1.3694472   -0.6457733 
O     5.0061915    2.1501597   -1.1645401 
O     3.6561114    1.5141567    0.7031385 
H     2.8375310    0.9800807    0.9571258 
C     4.0571714   -0.1353718   -2.7152845 
H     2.8907266   -0.4253823   -0.8754137 
C     4.7132198   -1.4445584   -2.3466292 
H     4.8105744    0.6076810   -3.0551359 
H     3.4278215   -0.3062320   -3.6143614 
C     5.9425706   -1.6270302   -1.8398050 
C     6.9171217   -0.7228328   -1.5638623 
C     8.0895948   -1.1751753   -1.0342238 
C     8.2688154   -2.5085224   -0.7895297 
C     7.2751833   -3.3981865   -1.0715293 
C     6.1247661   -2.9267408   -1.5964842 
H     6.7788681    0.3383504   -1.7487586 
H     8.8832450   -0.4691695   -0.8003135 
H     9.2053199   -2.8594848   -0.3633239 
H     7.3989849   -4.4580548   -0.8768807 
N     4.9682436   -3.6773610   -1.9422485 
C     4.0968285   -2.6376708   -2.4116682 
H     4.8083694   -4.7091660   -1.8708723 
H     3.0648834   -2.7826598   -2.7394471 
