48
Energy =
C    -3.3829312    1.3980215    1.4483371 
C    -2.0710911    1.3471530    1.1041311 
C    -4.0659250    2.5712920    1.3683081 
C    -3.4306014    3.6865001    0.9422294 
C    -2.1191440    3.6415580    0.5965632 
C    -1.4293471    2.4708895    0.6804729 
H    -1.5414142    0.4004588    1.1671507 
H    -3.9867151    4.6155003    0.8796189 
H    -1.6278440    4.5480415    0.2515136 
H    -3.8850434    0.4977376    1.7856762 
C     0.0273063    2.4172280    0.2763932 
C     0.1957462    2.3243312   -1.2579087 
H     0.5393095    1.5645371    0.7730060 
H     0.5354304    3.3360917    0.6510294 
C     1.6444437    2.5419861   -1.6654474 
O    -5.4181540    2.6576495    1.7152260 
H    -5.8215158    1.7798948    2.0236190 
O     1.9965465    3.7896318   -2.1598036 
N    -0.3253207    1.0433866   -1.7703773 
H    -0.3654109    3.1650479   -1.7354206 
H    -0.0277121    0.2444272   -1.1641310 
H    -1.3732281    1.0650021   -1.7542776 
N     2.6424371    1.5357457   -1.3839718 
C     4.0845690    1.6573054   -1.7169257 
H     2.3257818    0.6999746   -0.8457378 
C     4.5767040    3.0285276   -2.2091979 
O     5.2967422    3.8371314   -1.3357488 
O     4.4246445    3.4452953   -3.5346138 
H     3.6783982    2.9374017   -3.9849565 
C     4.4509063    0.5069210   -2.6819244 
H     4.6527398    1.4935651   -0.7732044 
C     5.9457738    0.4046028   -2.8966516 
H     3.9351007    0.6457726   -3.6573762 
H     4.0720162   -0.4581663   -2.2806687 
C     6.8279296   -0.2418339   -2.1180013 
C     6.6233886   -0.9742507   -0.9928591 
C     7.7061579   -1.5265220   -0.3736915 
C     8.9624475   -1.3376698   -0.8801965 
C     9.1437481   -0.5944597   -2.0087794 
C     8.0566765   -0.0613323   -2.6047967 
H     5.6278374   -1.1203841   -0.5859446 
H     7.5704406   -2.1173551    0.5289255 
H     9.8208732   -1.7781637   -0.3792425 
H    10.1337391   -0.4290587   -2.4200977 
N     8.0275739    0.7523801   -3.7686260 
C     6.6224617    1.0180824   -3.8838024 
H     8.8168895    1.0658885   -4.3790991 
H     6.1749178    1.6649120   -4.6383324 
