48
Energy =
C     2.9986832    4.7281141   -2.5144741 
C     1.9222745    4.0323255   -2.0682405 
C     3.8751289    5.2744589   -1.6295430 
C     3.6698540    5.1154199   -0.3029766 
C     2.5954625    4.4226677    0.1489764 
C     1.7104425    3.8788906   -0.7316971 
H     1.2393408    3.5885470   -2.7882440 
H     4.3808578    5.5434553    0.3924990 
H     2.4533160    4.3015190    1.2187203 
H     3.1618391    4.8371111   -3.5808615 
C     0.5138262    3.0937250   -0.2325329 
C     0.8392526    1.6065654    0.0261151 
H    -0.3149057    3.1614131   -0.9730562 
H     0.1268455    3.5569967    0.7006318 
C     1.2799036    0.9018282   -1.2514853 
O     4.9863331    6.0113226   -2.0566341 
H     5.1216461    5.9899916   -3.0612922 
O     0.3822280    0.8801545   -2.3155084 
N     1.8291941    1.4975194    1.1149341 
H    -0.1043113    1.0963431    0.3281810 
H     1.4502940    1.9593811    1.9747811 
H     1.9588273    0.4892980    1.3659958 
N     2.2609058   -0.1436359   -1.1857849 
C     3.3038851   -0.0430410   -2.2378886 
H     1.7361389   -1.0423722   -1.2539814 
C     4.0392867    1.3021329   -2.2223336 
O     4.3106022    1.9568878   -3.4203921 
O     4.5387041    1.8501667   -1.0421157 
H     4.1914599    1.3629103   -0.2274517 
C     2.7657533   -0.4003377   -3.6535059 
H     4.0963693   -0.7812884   -1.9879109 
C     2.2101667   -1.8082884   -3.7370040 
H     3.6034669   -0.3346337   -4.3832943 
H     2.0326455    0.3658091   -3.9808391 
C     0.9428426   -2.1851181   -3.9956179 
C    -0.1654597   -1.4402332   -4.2490305 
C    -1.3438248   -2.0864263   -4.4873871 
C    -1.3979952   -3.4514842   -4.4738569 
C    -0.2753178   -4.1803485   -4.2215799 
C     0.8774094   -3.5197547   -3.9861167 
H    -0.1352196   -0.3554598   -4.2592283 
H    -2.2466083   -1.5124498   -4.6862964 
H    -2.3410622   -3.9588430   -4.6646372 
H    -0.3014668   -5.2652162   -4.2092967 
N     2.1473708   -4.0924152   -3.7127432 
C     2.9533233   -2.9175236   -3.5689603 
H     2.4190488   -5.1005432   -3.6365667 
H     4.0216966   -2.9300562   -3.3615239 
