48
Energy =
C     0.7169464   -3.4806822    1.8129973 
C     0.2416724   -2.2331294    1.5690298 
C     1.2574168   -4.2150776    0.8049294 
C     1.3128296   -3.6971026   -0.4426255 
C     0.8467757   -2.4481230   -0.6913555 
C     0.3066803   -1.7055643    0.3147775 
H    -0.1786899   -1.6546803    2.3868730 
H     1.7456110   -4.2913629   -1.2393444 
H     0.9176540   -2.0513398   -1.6995224 
H     0.6698332   -3.8856917    2.8178854 
C    -0.1909301   -0.2972445    0.0488668 
C     0.6733545    0.7796797    0.7491889 
H    -1.2382593   -0.2144017    0.4132660 
H    -0.2303564   -0.0921552   -1.0431086 
C     2.1644104    0.5816121    0.5276414 
O     1.7649424   -5.5005149    1.0244369 
H     1.6559924   -5.8257405    1.9789455 
O     2.9478796    0.1105454    1.5773992 
N     0.2394498    2.1210082    0.3263246 
H     0.5342191    0.6949585    1.8524729 
H     0.3890434    2.2531149   -0.7026038 
H    -0.7808982    2.2515283    0.5231548 
N     2.7255219    0.6086847   -0.7911493 
C     4.0120128    1.3115531   -0.9502869 
H     2.1902624    0.2027387   -1.5866917 
C     3.8120048    2.7361618   -1.4535588 
O     4.4919487    3.7763131   -0.8328986 
O     3.0245807    3.0226969   -2.5710273 
H     2.6149266    2.1904438   -2.9630691 
C     4.9634654    0.5070774   -1.8780505 
H     4.5108478    1.4280969    0.0396995 
C     4.7587614   -0.9984251   -1.8383301 
H     6.0193309    0.7319338   -1.6082947 
H     4.8386938    0.8538817   -2.9290693 
C     4.8846593   -1.8231795   -0.7830648 
C     5.2014748   -1.5517303    0.5081058 
C     5.2190238   -2.5800757    1.4048564 
C     4.9356699   -3.8545260    0.9989112 
C     4.6351592   -4.1075086   -0.3053611 
C     4.6156311   -3.0722408   -1.1702296 
H     5.4003123   -0.5394699    0.8404130 
H     5.4381585   -2.3796107    2.4514129 
H     4.9284641   -4.6692970    1.7198149 
H     4.3895938   -5.1110436   -0.6388165 
N     4.2910134   -3.1199036   -2.5511222 
C     4.4056128   -1.7369737   -2.9066520 
H     4.0270158   -3.9435858   -3.1395402 
H     4.2372371   -1.3467077   -3.9079194 
