48
Energy =
C     0.3832854    3.6875686    3.6280995 
C     0.3755282    3.0332744    2.4391494 
C     1.0279834    4.8788765    3.7486072 
C     1.6624357    5.4062106    2.6772371 
C     1.6527912    4.7580198    1.4848330 
C     1.0090014    3.5662115    1.3574821 
H    -0.1391196    2.0794316    2.3612782 
H     2.1839646    6.3504016    2.7905076 
H     2.1842526    5.1844935    0.6370302 
H    -0.1256149    3.2543748    4.4824329 
C     1.0083340    2.8335677    0.0303881 
C     2.3072318    2.0341259   -0.2454866 
H     0.8436912    3.5632576   -0.7941625 
H     0.1429878    2.1361630   -0.0169361 
C     3.5013992    2.9395276   -0.5426078 
O     1.0536460    5.5802032    4.9587659 
H     0.5674226    5.1128838    5.7162607 
O     4.1916953    3.5309415    0.5143734 
N     2.5964304    1.0850197    0.8416129 
H     2.1393600    1.4371197   -1.1701804 
H     2.8942644    1.6151803    1.6966834 
H     1.7320488    0.5506725    1.0889583 
N     3.6761201    3.4974639   -1.8589181 
C     5.1113192    3.5989451   -2.2124062 
H     3.1926284    2.8923796   -2.5614867 
C     5.2919263    4.2604760   -3.5651936 
O     5.8834146    3.4909658   -4.5566546 
O     4.9321401    5.5755669   -3.8320013 
H     4.4534539    5.9808471   -3.0406204 
C     5.8343851    2.2089370   -2.1896356 
H     5.6265065    4.2763432   -1.4931939 
C     5.1727975    1.1744396   -3.0887416 
H     5.8833991    1.8358722   -1.1421278 
H     6.8925586    2.3305621   -2.5108134 
C     5.0067631    1.2076147   -4.4380111 
C     5.4590725    2.1218216   -5.4073796 
C     5.0079910    1.9145484   -6.6891399 
C     4.1621046    0.8909737   -6.9963273 
C     3.7511878    0.0259586   -6.0362727 
C     4.1888182    0.2032780   -4.7766252 
H     6.3631337    3.0647097   -5.4702934 
H     5.3407533    2.5790886   -7.4833312 
H     3.8201231    0.7615202   -8.0202604 
H     3.0751562   -0.7893335   -6.2716502 
N     3.8174031   -0.5733392   -3.6477710 
C     4.4862842    0.1280039   -2.5987369 
H     3.2077879   -1.4214492   -3.5954180 
H     4.3821120   -0.1095804   -1.5413046 
