48
Energy =
C     1.8671662   -2.4058257   -4.6036073 
C     1.7393730   -2.3322052   -3.2549563 
C     1.4755045   -1.3661362   -5.3837853 
C     0.9508417   -0.2636579   -4.8082922 
C     0.8274418   -0.1812544   -3.4605063 
C     1.2202689   -1.2184829   -2.6623400 
H     2.0647589   -3.1745334   -2.6491517 
H     0.6454027    0.5648496   -5.4381878 
H     0.4244501    0.7327565   -3.0615912 
H     2.2892942   -3.2970464   -5.0551531 
C     1.1437141   -1.2117651   -1.1362944 
C     0.5847565    0.0320458   -0.3885603 
H     2.1741676   -1.3888333   -0.7557141 
H     0.5499127   -2.0975209   -0.8214710 
C     1.3971908    1.2993476   -0.6358125 
O     1.6133079   -1.4003042   -6.7755313 
H     1.9942215   -2.2712048   -7.1285488 
O     0.9080567    2.2790404   -1.2177233 
N    -0.8664414    0.1994457   -0.5973417 
H     0.7240328   -0.1629587    0.6978352 
H    -1.0640711    0.7088700   -1.4876911 
H    -1.3426457   -0.7293274   -0.6599835 
N     2.7944731    1.3407969   -0.2979005 
C     3.6275172    2.0202399   -1.3048609 
H     3.1648050    0.8946543    0.5708530 
C     2.7412293    2.8951748   -2.2058574 
O     3.2735288    3.5516393   -3.3102186 
O     1.5373458    3.0349063   -1.9335117 
H     1.2669754    3.1854658   -0.9820275 
C     4.4063307    0.9351036   -2.0754427 
H     4.3344106    2.7055754   -0.7891987 
C     5.4594351    1.5114255   -2.9986855 
H     3.6916804    0.2909454   -2.6293628 
H     4.9140008    0.2678074   -1.3454771 
C     5.4233384    1.5699450   -4.3408675 
C     4.4657619    1.1533332   -5.2082916 
C     4.6788706    1.3226006   -6.5438685 
C     5.8339912    1.9024853   -6.9899686 
C     6.7818382    2.3170065   -6.1016643 
C     6.5467469    2.1372170   -4.7844411 
H     3.5440016    0.7058595   -4.8612607 
H     3.9212466    0.9979808   -7.2549152 
H     5.9945084    2.0376032   -8.0565670 
H     7.7020290    2.7816612   -6.4387410 
N     7.4001863    2.4901367   -3.7045164 
C     6.6194899    2.0520571   -2.5848714 
H     8.3445857    2.9385260   -3.7260413 
H     6.9294254    2.1438290   -1.5469100 
