48
Energy =
C     0.7222095    0.0824852    3.0911497 
C     1.5365241    0.7347391    2.2232147 
C    -0.5722808    0.4713726    3.2381087 
C    -1.0430934    1.5115415    2.5147923 
C    -0.2341680    2.1664478    1.6450499 
C     1.0640305    1.7816954    1.4923449 
H     2.5666863    0.4111254    2.1226935 
H    -2.0769933    1.8121842    2.6403887 
H    -0.6352630    2.9976162    1.0719131 
H     1.1094612   -0.7513022    3.6667970 
C     1.9643036    2.5035544    0.5090242 
C     2.0218551    1.8316894   -0.8885765 
H     2.9929693    2.5853003    0.9290678 
H     1.6224767    3.5554832    0.3885358 
C     2.7722636    0.5019487   -0.8761882 
O    -1.4377625   -0.1783575    4.1241502 
H    -1.0106654   -0.9524601    4.6210120 
O     2.0906645   -0.6945408   -1.0785728 
N     0.6725346    1.7118277   -1.4758245 
H     2.6236052    2.4826928   -1.5595162 
H     0.1100431    1.0042956   -0.9438733 
H     0.1697945    2.6278944   -1.4136948 
N     4.1425187    0.4318565   -0.4596652 
C     5.2486878    0.7023938   -1.4026562 
H     4.3373714    0.2027755    0.5391129 
C     5.7516382    2.1413645   -1.3137239 
O     4.8561948    3.1898678   -1.1496899 
O     7.1068051    2.4473762   -1.4489353 
H     7.6821469    1.6235538   -1.5439713 
C     4.9728886    0.2009299   -2.8501739 
H     6.0969395    0.0785193   -1.0442164 
C     4.1074005    1.1077302   -3.7098206 
H     4.5119441   -0.8112301   -2.7939828 
H     5.9445234    0.0546211   -3.3709183 
C     4.4926795    2.2118260   -4.3764669 
C     5.7158629    2.7947323   -4.4723721 
C     5.8434305    3.9192598   -5.2332213 
C     4.7623547    4.4329233   -5.8932482 
C     3.5477452    3.8224740   -5.7991560 
C     3.4455889    2.7154619   -5.0340529 
H     6.5817571    2.3860724   -3.9631220 
H     6.8110848    4.4093911   -5.3131869 
H     4.8728522    5.3295142   -6.4982689 
H     2.6819352    4.2106823   -6.3249692 
N     2.2876044    1.9207514   -4.8325608 
C     2.8065188    0.8907372   -3.9829974 
H     1.3186397    2.0416655   -5.2075767 
H     2.2218987    0.0455547   -3.6246196 
