48
Energy =
C    -4.0417333    0.3456940   -1.0932043 
C    -2.9969561   -0.3722817   -1.5770028 
C    -3.9566513    0.9392671    0.1272914 
C    -2.8239287    0.8111132    0.8551614 
C    -1.7758734    0.0940284    0.3765033 
C    -1.8579704   -0.5059304   -0.8424477 
H    -3.0791195   -0.8352432   -2.5568802 
H    -2.7669397    1.2920449    1.8255024 
H    -0.8723944    0.0059534    0.9746717 
H    -4.9445136    0.4450212   -1.6858175 
C    -0.6833042   -1.2911888   -1.3822487 
C     0.4339151   -0.3729258   -1.9282807 
H    -1.0089968   -1.9962851   -2.1805343 
H    -0.2756183   -1.9272763   -0.5646783 
C     1.6664054   -1.1860853   -2.2726423 
O    -5.0156366    1.6855206    0.6550576 
H    -5.8262451    1.7363830    0.0479721 
O     1.6232453   -2.0947552   -3.3272223 
N    -0.0308755    0.3798711   -3.1048055 
H     0.7425520    0.3491362   -1.1354760 
H    -0.4208120   -0.2814230   -3.8189540 
H    -0.7957512    1.0374307   -2.8242186 
N     2.7528236   -1.2677538   -1.3391008 
C     3.9777578   -0.5719955   -1.8037305 
H     2.9578699   -2.2875888   -1.2241149 
C     3.8801017    0.9501021   -1.6644837 
O     4.6356060    1.5843284   -0.6861371 
O     3.0759986    1.7387849   -2.4897811 
H     2.5260846    1.1937326   -3.1345784 
C     4.4270492   -1.0469402   -3.2142754 
H     4.7886055   -0.8554204   -1.0922112 
C     5.8645304   -0.6684463   -3.5008001 
H     3.7544945   -0.6586263   -4.0096391 
H     4.3310126   -2.1548291   -3.2754463 
C     6.3088022    0.4309792   -4.1334253 
C     5.6180259    1.4531998   -4.7011915 
C     6.3205966    2.4682926   -5.2810299 
C     7.6876624    2.4472035   -5.2871950 
C     8.3608073    1.4106598   -4.7125061 
C     7.6433643    0.4183957   -4.1449310 
H     4.5340143    1.4796726   -4.6972486 
H     5.7896487    3.3015621   -5.7356288 
H     8.2399740    3.2624054   -5.7480176 
H     9.4450327    1.3805081   -4.7047055 
N     8.1469552   -0.7370883   -3.4903844 
C     6.9301341   -1.3835199   -3.0981278 
H     9.1384421   -1.0340122   -3.3407934 
H     6.8835473   -2.3144548   -2.5370584 
