48
Energy =
C     3.1450044   -0.6216673    4.6411298 
C     2.7860317   -0.1930052    3.4043967 
C     4.4292372   -0.9937653    4.8896956 
C     5.3463473   -0.9334460    3.8975607 
C     4.9930783   -0.5058945    2.6591612 
C     3.7094958   -0.1297383    2.4056957 
H     1.7549794    0.0994498    3.2195364 
H     6.3671798   -1.2327571    4.1079274 
H     5.7437512   -0.4686905    1.8734671 
H     2.4023661   -0.6671938    5.4303397 
C     3.3045155    0.3310116    1.0221092 
C     2.6081877   -0.7958945    0.2172794 
H     4.1920573    0.7248629    0.4862507 
H     2.6152431    1.2004357    1.1272726 
C     1.7658914   -0.2373815   -0.9373261 
O     4.8312849   -1.4431692    6.1518135 
H     4.0888767   -1.4501892    6.8426223 
O     0.3906363   -0.2112360   -0.7412839 
N     3.5814272   -1.8132307   -0.2173047 
H     1.8591879   -1.2779846    0.8937435 
H     4.0420208   -2.2269016    0.6272926 
H     3.0588949   -2.6062034   -0.6599617 
N     2.2316839    0.1026676   -2.2649516 
C     3.6939548    0.1770481   -2.5162110 
H     1.7396121   -0.5477758   -2.9188008 
C     4.0560603    1.5224633   -3.1353157 
O     5.1108270    2.2547831   -2.6033201 
O     3.3951762    2.0209712   -4.2595884 
H     2.5982813    1.4516767   -4.5008808 
C     4.1501735   -1.0012770   -3.4132594 
H     4.2804614    0.1398855   -1.5833236 
C     5.6593350   -1.1061943   -3.4688245 
H     3.7297576   -0.9020886   -4.4376875 
H     3.7508872   -1.9534318   -3.0008444 
C     6.4814793   -0.5471259   -4.3720846 
C     6.1962070    0.2129410   -5.4608514 
C     7.2316953    0.6743023   -6.2190656 
C     8.5224546    0.3729630   -5.8827935 
C     8.7855603   -0.3900591   -4.7841277 
C     7.7440968   -0.8350199   -4.0499867 
H     5.1742166    0.4654674   -5.7257691 
H     7.0284098    1.2924549   -7.0903479 
H     9.3421190    0.7496230   -6.4894762 
H     9.8035730   -0.6318829   -4.4987395 
N     7.8015447   -1.6234743   -2.8694755 
C     6.4088970   -1.7451267   -2.5533201 
H     8.6347756   -2.0117269   -2.3713622 
H     6.0190288   -2.2607319   -1.6784793 
