48
Energy =
C    -1.8113227    3.1865567   -2.2413232 
C    -1.1035855    2.6592294   -3.2724754 
C    -2.2845426    2.3800248   -1.2539212 
C    -2.0430045    1.0503420   -1.3037257 
C    -1.3353472    0.5178462   -2.3316100 
C    -0.8674621    1.3194537   -3.3276507 
H    -0.7240649    3.3167522   -4.0506808 
H    -2.4187298    0.4185153   -0.5063667 
H    -1.1383657   -0.5517663   -2.3456753 
H    -1.9951571    4.2550482   -2.2062921 
C    -0.0451866    0.7365307   -4.4565782 
C     1.4665480    0.8724011   -4.1819845 
H    -0.3023458    1.2570539   -5.4049187 
H    -0.3006749   -0.3364516   -4.6118178 
C     1.8816897    0.0939072   -2.9387057 
O    -3.0182154    2.8909280   -0.1786612 
H    -3.1408492    3.8973679   -0.2038922 
O     1.6735567   -1.2818842   -2.8757976 
N     2.2317298    0.4359801   -5.3628807 
H     1.7010492    1.9433687   -3.9890341 
H     2.0065742   -0.5674539   -5.5768063 
H     1.9506839    1.0011934   -6.1993296 
N     2.3408481    0.7820867   -1.7612264 
C     3.7836174    1.1749191   -1.7466187 
H     2.1506484    0.1355530   -0.9593993 
C     3.9455838    2.6725116   -1.4766267 
O     5.1302665    3.1280738   -0.9157624 
O     2.9934235    3.6192098   -1.8531684 
H     2.1000150    3.1953838   -2.0429621 
C     4.5829330    0.7446371   -3.0159884 
H     4.2722422    0.6881551   -0.8678932 
C     6.0806661    0.8681029   -2.8201563 
H     4.2663961    1.3525851   -3.8941089 
H     4.3627775   -0.3121983   -3.2828173 
C     6.8985874   -0.0598870   -2.2972854 
C     6.6196077   -1.3077523   -1.8383743 
C     7.6435517   -2.0585972   -1.3402421 
C     8.9149929   -1.5563690   -1.3045815 
C     9.1702695   -0.2991502   -1.7658322 
C     8.1415020    0.4229981   -2.2569192 
H     5.6098763   -1.7078196   -1.8560838 
H     7.4469400   -3.0604446   -0.9655877 
H     9.7249381   -2.1597580   -0.9022710 
H    10.1715776    0.1171583   -1.7376422 
N     8.1891035    1.7474124   -2.7669916 
C     6.8100682    1.9641991   -3.0990432 
H     9.0106459    2.3843520   -2.8818567 
H     6.4020246    2.9096276   -3.4558022 
