48
Energy =
C     1.5090029    6.7039559    2.6854687 
C     1.4251808    6.1845399    1.4348585 
C     1.0436985    5.9989897    3.7510590 
C     0.4962379    4.7776337    3.5568685 
C     0.4103571    4.2526180    2.3083487 
C     0.8729816    4.9551308    1.2384527 
H     1.8052351    6.7600267    0.5945017 
H     0.1274926    4.2264020    4.4150675 
H    -0.0337260    3.2698120    2.1727315 
H     1.9500337    7.6841256    2.8307994 
C     0.7943299    4.3617573   -0.1504974 
C     1.8955459    3.3002294   -0.4052943 
H     0.8520287    5.1572321   -0.9287391 
H    -0.2101465    3.8973107   -0.2810684 
C     1.6896687    2.5705913   -1.7268991 
O     1.1176575    6.5037238    5.0532975 
H     1.5313222    7.4277877    5.1145296 
O     0.6048304    2.8769129   -2.5389243 
N     3.2298747    3.9202080   -0.3597231 
H     1.8308996    2.5102923    0.3771223 
H     3.2958260    4.6926936   -1.0670331 
H     3.4095777    4.3357195    0.5836403 
N     2.4420472    1.3902860   -2.0340635 
C     3.8783926    1.5457228   -2.3479944 
H     1.9466077    0.4708873   -1.9969865 
C     4.1484635    2.6744408   -3.3486538 
O     5.0916155    3.6472014   -3.0396326 
O     3.5091618    2.7319009   -4.5859327 
H     2.7413708    2.0761795   -4.6236460 
C     4.4220735    0.1950989   -2.8595672 
H     4.4258051    1.8146542   -1.4160265 
C     5.9218638    0.2340475   -3.0562647 
H     3.9240459   -0.0721907   -3.8188063 
H     4.1668492   -0.6120938   -2.1392002 
C     6.8620994    0.0214778   -2.1222439 
C     6.7287121   -0.3030215   -0.8103686 
C     7.8593730   -0.4548935   -0.0625397 
C     9.0914561   -0.2782173   -0.6293564 
C     9.2003390    0.0527531   -1.9475490 
C     8.0673981    0.1939846   -2.6671090 
H     5.7514237   -0.4359067   -0.3570267 
H     7.7807571   -0.7140040    0.9904188 
H     9.9878562   -0.3972952   -0.0260476 
H    10.1692201    0.2040539   -2.4110848 
N     7.9592546    0.5500122   -4.0380952 
C     6.5346049    0.5644634   -4.2068656 
H     8.7149992    0.7399314   -4.7355707 
H     6.0222741    0.8539924   -5.1242033 
