48
Energy =
C     8.5377982    1.8734024    3.3829184 
C     7.3587305    1.8692325    2.7109770 
C     8.6061254    1.3773100    4.6472682 
C     7.4923863    0.8788270    5.2304804 
C     6.3105891    0.8720607    4.5636156 
C     6.2358289    1.3721647    3.2997744 
H     7.3221581    2.2653348    1.6985475 
H     7.5602442    0.4833237    6.2379362 
H     5.4278976    0.4620944    5.0480378 
H     9.4260522    2.2729940    2.9056457 
C     4.9234534    1.3457833    2.5482653 
C     4.6308610   -0.0534379    1.9561927 
H     4.9285550    2.1123563    1.7415328 
H     4.1046614    1.6335329    3.2454366 
C     3.2060783   -0.1755546    1.4229281 
O     9.8054890    1.3661997    5.3670979 
H    10.5928324    1.7572800    4.8614607 
O     2.3335578   -1.0380053    2.0736726 
N     5.6288486   -0.4199346    0.9356440 
H     4.6755666   -0.8028764    2.7844687 
H     5.9339833    0.4156425    0.3855819 
H     6.4891327   -0.7774322    1.4142339 
N     2.6285285    0.7636962    0.5010337 
C     3.1646397    0.6416070   -0.8738589 
H     2.7198103    1.7259870    0.8945940 
C     4.1967304    1.7340321   -1.1959523 
O     4.0007320    3.0320439   -0.7340495 
O     5.3200918    1.4770305   -1.9851440 
H     5.3645879    0.5095659   -2.2749191 
C     1.9758566    0.7112157   -1.8612945 
H     3.6688522   -0.3440968   -1.0108070 
C     1.4648946   -0.6647755   -2.2385511 
H     2.2756744    1.2408573   -2.7939968 
H     1.1478289    1.3138383   -1.4284121 
C     0.7110672   -1.4920841   -1.4938155 
C     0.2042016   -1.3289631   -0.2455923 
C    -0.5277878   -2.3445913    0.2974148 
C    -0.7467098   -3.4931691   -0.4111198 
C    -0.2303329   -3.6352245   -1.6643847 
C     0.4941121   -2.6184880   -2.1769835 
H     0.3913412   -0.4266030    0.3270904 
H    -0.9239142   -2.2451763    1.3063695 
H    -1.3252485   -4.3011409    0.0305893 
H    -0.3871867   -4.5430992   -2.2371159 
N     1.1274296   -2.5744675   -3.4474476 
C     1.7395237   -1.2795809   -3.4035634 
H     1.1379951   -3.2926129   -4.2082074 
H     2.3505329   -0.8633912   -4.2019450 
