48
Energy =
C     3.5228695    1.3227642    5.2631504 
C     4.0594768    0.4504554    4.3686595 
C     2.6660701    2.2960268    4.8437567 
C     2.3546906    2.3915092    3.5305701 
C     2.8932031    1.5192123    2.6450799 
C     3.7332724    0.5379609    3.0505488 
H     4.7519808   -0.3114785    4.7159462 
H     1.6755160    3.1685527    3.1976734 
H     2.6765673    1.5035159    1.4876561 
H     3.7841580    1.2433563    6.3127676 
C     4.3605624   -0.3875256    2.0156344 
C     3.3943360   -0.8128798    0.8652756 
H     4.7281114   -1.3051425    2.5259087 
H     5.2490373    0.1229310    1.5822529 
C     3.0423419    0.3426304   -0.1041175 
O     2.0951572    3.2056751    5.7397771 
H     2.3872885    3.0741243    6.7016055 
O     2.4658388    1.5033153    0.4079271 
N     3.9531275   -1.9822382    0.1608294 
H     2.4152749   -1.1038063    1.3174484 
H     4.9833984   -1.8600690    0.0154813 
H     3.8449399   -2.8288202    0.7694698 
N     2.9420077    0.1363367   -1.5218325 
C     4.2521175    0.3181987   -2.1865289 
H     2.5899229   -0.8365839   -1.6546661 
C     4.7436530    1.7685391   -2.1316246 
O     3.8608302    2.8197827   -2.3410988 
O     6.1032180    2.0642943   -1.9953999 
H     6.6706354    1.2399099   -1.8754815 
C     4.1784618   -0.1884844   -3.6463816 
H     5.0181938   -0.3020524   -1.6755187 
C     3.1655908    0.5671277   -4.4856642 
H     3.9166666   -1.2694084   -3.6471776 
H     5.1835367   -0.1226131   -4.1170270 
C     3.3906064    1.6488834   -5.2511920 
C     4.5397234    2.3387457   -5.4737211 
C     4.4966100    3.4215699   -6.3019917 
C     3.3203090    3.7946624   -6.8907556 
C     2.1788959    3.0888283   -6.6520439 
C     2.2465615    2.0220211   -5.8282246 
H     5.4719607    2.0592074   -4.9927086 
H     5.4003259    3.9980914   -6.4841336 
H     3.2927362    4.6635421   -7.5433642 
H     1.2357047    3.3763195   -7.1037302 
N     1.1794791    1.1657139   -5.4461583 
C     1.8593760    0.2568995   -4.5697351 
H     0.1763238    1.1872994   -5.7411026 
H     1.3764818   -0.5559632   -4.0337284 
