48
Energy =
C     0.8003844   -0.5691261   -5.2945788 
C     0.3540626   -0.4493488   -4.0193349 
C     1.1596128    0.5361894   -5.9982892 
C     1.0569994    1.7557537   -5.4255088 
C     0.6115905    1.8817834   -4.1493656 
C     0.2824882    0.7752512   -3.4261421 
H     0.0480779   -1.3418034   -3.4799921 
H     1.3296236    2.6289128   -6.0090067 
H     0.5147932    2.8757700   -3.7205755 
H     0.8618403   -1.5502753   -5.7527616 
C    -0.2224872    0.9040259   -2.0019546 
C     0.6619011    0.1579153   -0.9592321 
H    -1.2538820    0.4865333   -1.9899216 
H    -0.3362348    1.9685349   -1.6977184 
C     1.9269681    0.9118690   -0.5351311 
O     1.6310547    0.4486731   -7.3112923 
H     1.6649341   -0.4966863   -7.6775319 
O     2.4694079    0.6924477    0.7262799 
N    -0.1624489   -0.1659413    0.2154977 
H     1.0298358   -0.7992485   -1.3797955 
H    -0.5335346    0.7129503    0.6492805 
H    -0.9733002   -0.7690719   -0.0564097 
N     2.6301328    1.7904545   -1.4241455 
C     4.0433520    1.4734339   -1.7074942 
H     2.0885650    2.4803270   -1.9830984 
C     4.7940469    2.7222705   -2.1462996 
O     5.8941516    3.1472308   -1.4133302 
O     4.4379822    3.4286356   -3.2966529 
H     3.6864091    2.9788010   -3.7962112 
C     4.1518668    0.3538338   -2.7797938 
H     4.5492664    1.1742682   -0.7567738 
C     4.3024815   -1.0222432   -2.1682991 
H     5.0373465    0.5185206   -3.4364492 
H     3.2661959    0.3846241   -3.4518407 
C     5.3495900   -1.4753751   -1.4587340 
C     6.5027667   -0.8477610   -1.1088386 
C     7.4242156   -1.5430034   -0.3826084 
C     7.1871336   -2.8423372   -0.0281909 
C     6.0282374   -3.4557446   -0.4014983 
C     5.1302349   -2.7457518   -1.1160731 
H     6.7014959    0.1807604   -1.3984651 
H     8.3531598   -1.0611688   -0.0857919 
H     7.9272515   -3.3896533    0.5503188 
H     5.8280177   -4.4879918   -0.1352565 
N     3.8835355   -3.2005805   -1.6221954 
C     3.4194627   -2.0267628   -2.3014923 
H     3.4376991   -4.1421248   -1.5292729 
H     2.5020721   -1.9771711   -2.8787669 
