48
Energy =
C     0.0507512   -2.9309577    0.6309521 
C     0.0234540   -1.5928758    0.8554353 
C     0.0067842   -3.4118796   -0.6399884 
C    -0.0707744   -2.5490585   -1.6780814 
C    -0.0935814   -1.2105879   -1.4603638 
C    -0.0418871   -0.7217233   -0.1897319 
H     0.0650062   -1.2240637    1.8764660 
H    -0.1037292   -2.9432767   -2.6879565 
H    -0.1488112   -0.5395221   -2.3132882 
H     0.1135349   -3.6146419    1.4705138 
C    -0.0410979    0.7752489    0.0565459 
C     1.2778803    1.2803050    0.6931407 
H    -0.8899352    1.0264520    0.7293816 
H    -0.2277940    1.3278152   -0.8917018 
C     2.5154064    0.7524664   -0.0125799 
O     0.0437281   -4.7847704   -0.9066690 
H     0.0962241   -5.3647911   -0.0762256 
O     3.3946212   -0.0851827    0.6654062 
N     1.2776980    2.7519327    0.7332967 
H     1.3500857    0.8971553    1.7379109 
H     1.2027938    3.1428020   -0.2375570 
H     0.4478688    3.0946017    1.2731891 
N     2.7369408    1.0154394   -1.4002679 
C     3.9786587    1.7168920   -1.7647152 
H     1.9948729    0.7846518   -2.0968864 
C     3.7231462    2.8099800   -2.7948422 
O     2.6242867    2.7270609   -3.6420040 
O     4.6227566    3.8598792   -2.9762851 
H     5.3877410    3.8313974   -2.3186555 
C     5.0088976    0.6847711   -2.2721506 
H     4.4009504    2.2359834   -0.8722914 
C     4.4564445   -0.1843432   -3.3862678 
H     5.3284822    0.0488809   -1.4177604 
H     5.9267054    1.2019925   -2.6295993 
C     3.9085138   -1.4061582   -3.2639064 
C     3.7342289   -2.1802858   -2.1609355 
C     3.1268014   -3.3918964   -2.3077478 
C     2.6990350   -3.8061622   -3.5377810 
C     2.8778701   -3.0111975   -4.6303450 
C     3.4878024   -1.8190301   -4.4611988 
H     4.0573503   -1.8531064   -1.1778473 
H     2.9698316   -4.0274570   -1.4390139 
H     2.2062358   -4.7701992   -3.6405793 
H     2.5379617   -3.3219433   -5.6122590 
N     3.7476577   -0.8407210   -5.4574832 
C     4.3677477    0.1904593   -4.6752812 
H     3.5435081   -0.8695065   -6.4830869 
H     4.6677073    1.1651467   -5.0614549 
