48
Energy =
C    -2.6551929   -1.0220732   -5.3795744 
C    -1.7904115   -0.6494223   -4.4022236 
C    -3.0469904   -0.1256006   -6.3241708 
C    -2.5690192    1.1387920   -6.2843540 
C    -1.7038813    1.5169698   -5.3096340 
C    -1.3117731    0.6246325   -4.3593143 
H    -1.4806411   -1.3794920   -3.6588302 
H    -2.8875455    1.8434435   -7.0445650 
H    -1.3278598    2.5367182   -5.2965854 
H    -3.0306005   -2.0393031   -5.4049772 
C    -0.3350692    1.0420887   -3.2820271 
C     1.1241845    1.0669387   -3.7918422 
H    -0.4084417    0.3697632   -2.3977174 
H    -0.6217945    2.0524670   -2.9131361 
C     2.0308350    1.7481458   -2.7821278 
O    -3.9362567   -0.4770657   -7.3451134 
H    -4.2490363   -1.4408757   -7.3046864 
O     2.0448091    1.3323807   -1.4528622 
N     1.5981043   -0.2977958   -4.0857968 
H     1.1809280    1.6830170   -4.7204735 
H     1.4749263   -0.9068772   -3.2404453 
H     1.0290217   -0.7122878   -4.8610703 
N     2.8869217    2.8268959   -3.1876988 
C     4.3120535    2.4358291   -3.0820821 
H     2.6826126    3.5931686   -2.5031005 
C     5.2098322    3.6689278   -2.9466970 
O     5.5547329    4.4028794   -4.0756026 
O     5.6521000    4.1161655   -1.7018910 
H     5.2658051    3.5758834   -0.9418197 
C     4.6917292    1.5977888   -4.3259541 
H     4.4839203    1.8199979   -2.1654894 
C     6.0395181    0.9271135   -4.1641702 
H     4.6527681    2.2361678   -5.2356170 
H     3.9345525    0.8014124   -4.4911186 
C     7.2119733    1.2936703   -4.7105965 
C     7.5053779    2.3188580   -5.5522657 
C     8.7966494    2.4721708   -5.9633679 
C     9.7655828    1.6076551   -5.5360529 
C     9.4491850    0.5839459   -4.6939233 
C     8.1650872    0.4534902   -4.2996691 
H     6.7448410    3.0127897   -5.8948916 
H     9.0564211    3.2906268   -6.6309070 
H    10.7929782    1.7394288   -5.8666416 
H    10.2063827   -0.1096614   -4.3440986 
N     7.6329618   -0.5368351   -3.4314885 
C     6.2521098   -0.1563727   -3.3956212 
H     8.1183307   -1.3296892   -2.9519243 
H     5.4862624   -0.6719074   -2.8186669 
