48
Energy =
C    -1.3777281    3.9572546    0.1470230 
C    -0.3785561    3.3926890    0.8718041 
C    -1.7539171    3.4110929   -1.0401549 
C    -1.1251202    2.3048346   -1.4951264 
C    -0.1224778    1.7390850   -0.7784257 
C     0.2561541    2.2777569    0.4147166 
H    -0.0888571    3.8419575    1.8182302 
H    -1.4351047    1.8791165   -2.4418853 
H     0.3763631    0.8578452   -1.1717687 
H    -1.8751557    4.8461634    0.5200343 
C     1.3764619    1.6494452    1.2211729 
C     2.7845901    2.1600477    0.8241784 
H     1.3368133    0.5438184    1.1114585 
H     1.2127214    1.8375396    2.3054547 
C     3.1043253    1.9068589   -0.6438149 
O    -2.7826100    3.9638525   -1.8098227 
H    -3.1936591    4.7991131   -1.4069538 
O     2.8353164    2.8904614   -1.5902277 
N     2.9532161    3.5761642    1.1893628 
H     3.5361777    1.5743377    1.4003037 
H     2.3263827    4.1797070    0.6044191 
H     2.7005787    3.7253395    2.1936460 
N     3.3565431    0.5634382   -1.0915521 
C     4.5797900    0.2998972   -1.8752932 
H     2.7412148   -0.2146224   -0.7672901 
C     5.8201540    0.9863321   -1.2948795 
O     6.5784934    1.8536289   -2.0736030 
O     6.2409139    0.7163734    0.0086752 
H     5.6182885    0.0756839    0.4779525 
C     4.3270693    0.6382109   -3.3627058 
H     4.8106363   -0.7862257   -1.8116101 
C     3.1423174   -0.1275198   -3.9183050 
H     5.2265298    0.3795170   -3.9647281 
H     4.1854982    1.7340396   -3.4780386 
C     1.9498253    0.3671129   -4.2973810 
C     1.4970925    1.6483368   -4.3225038 
C     0.2295199    1.8819159   -4.7669125 
C    -0.5624916    0.8448581   -5.1729014 
C    -0.0894013   -0.4326909   -5.1415968 
C     1.1697210   -0.6386173   -4.7008476 
H     2.1179612    2.4801160   -4.0092388 
H    -0.1519476    2.9003908   -4.7979153 
H    -1.5714306    1.0411503   -5.5273632 
H    -0.7025354   -1.2662505   -5.4666109 
N     1.8479001   -1.8824690   -4.6010842 
C     3.1181419   -1.4616234   -4.0892450 
H     1.5065189   -2.8435119   -4.8318840 
H     3.9441067   -2.1340693   -3.8709999 
