48
Energy =
C    -0.0811811    6.9684723   -3.3686615 
C     0.2107369    5.8046569   -2.7341778 
C     0.8059642    7.5113698   -4.2451914 
C     1.9810056    6.8846063   -4.4811403 
C     2.2785092    5.7214686   -3.8499238 
C     1.3948116    5.1748954   -2.9689398 
H    -0.5110644    5.3813807   -2.0401330 
H     2.6817560    7.3242498   -5.1829343 
H     3.2297902    5.2332483   -4.0566568 
H    -1.0266300    7.4635737   -3.1747911 
C     1.7205024    3.8684731   -2.2801934 
C     1.4622950    2.6497406   -3.2017290 
H     1.1418411    3.7592558   -1.3361488 
H     2.7888668    3.8970714   -1.9632597 
C     2.1772164    1.4151968   -2.6807278 
O     0.5339662    8.7082966   -4.9156094 
H    -0.3640320    9.1175809   -4.6828768 
O     2.0379009    1.0399458   -1.3490450 
N     0.0171703    2.3972715   -3.3396931 
H     1.8963796    2.8482875   -4.2126015 
H    -0.4145886    2.2426578   -2.3960350 
H    -0.4521902    3.2246352   -3.7775519 
N     3.1885507    0.7847035   -3.4742513 
C     4.5781314    1.2104094   -3.2267161 
H     2.9069930    0.0432495   -4.1544494 
C     4.8004932    2.6514656   -3.6716706 
O     5.2427715    3.5892709   -2.7488793 
O     4.5099423    3.0786012   -4.9680399 
H     4.1868091    2.3169263   -5.5482380 
C     5.5386787    0.2302404   -3.9306930 
H     4.7834852    1.1834996   -2.1290829 
C     6.9830915    0.5382812   -3.6037605 
H     5.3884782    0.2718682   -5.0323285 
H     5.3006439   -0.8112959   -3.6221416 
C     7.6783179    0.1063805   -2.5401031 
C     7.3000731   -0.7160327   -1.5278189 
C     8.2053157   -0.9928593   -0.5457497 
C     9.4585079   -0.4466185   -0.5872309 
C     9.8135867    0.3815161   -1.6105563 
C     8.9017583    0.6373386   -2.5719965 
H     6.3025363   -1.1433439   -1.4876456 
H     7.9271485   -1.6474710    0.2767993 
H    10.1728495   -0.6687708    0.2015517 
H    10.8001798    0.8300849   -1.6542904 
N     9.0600911    1.4825891   -3.7029211 
C     7.7656986    1.3712032   -4.3121693 
H     9.8966896    2.0300966   -4.0098445 
H     7.4435759    1.9267344   -5.1930622 
