48
 energy: -9.250977702297 gnorm: 0.000391491281 xtb: 6.6.0 (2ccbbd7)
C           -1.25034365812138        6.75442125858025       -1.20558753532685
C           -0.51714277517320        5.97942741203743       -0.33804680542801
C           -1.91207978480387        6.17716014117380       -2.29013414879429
C           -1.80370568023496        4.79866887085116       -2.47078360079408
C           -1.06832755573821        4.03343977692927       -1.59870836617307
C           -0.41932830318178        4.60633035965397       -0.51589646948218
H           -0.00970211268412        6.43832614418645        0.49300211078857
H           -2.30569275774703        4.35235739305654       -3.31077094875992
H           -0.96943015397963        2.97397451098241       -1.75771250952005
H           -1.32124280679761        7.81697557053955       -1.05577120279050
C            0.39184916209845        3.76745790572832        0.42806623349909
C            1.67651943101005        3.18188406195516       -0.18663066262314
H           -0.23069943087348        2.94614101885652        0.79876961030042
H            0.64381535930020        4.37177522467227        1.30638868696472
C            1.43284898363135        1.92170134846000       -0.97066939903483
O           -2.65932028913527        6.92845092606564       -3.17738539941564
H           -2.63710146575086        7.87502498772016       -2.91752863530834
O            0.29925747118827        1.53912863559810       -1.18910864509100
N            2.34817104488359        4.17376776857814       -1.08483287414844
H            2.37862468518630        2.92563677751609        0.61865063760278
H            1.62764384039180        4.45674451569350       -1.78181246065369
H            2.52084543726980        5.04198587891314       -0.53353189887197
N            2.51950444715186        1.21657263491170       -1.44254176010270
C            3.91331057815709        1.43549662593707       -1.02557737083092
H            2.35452881189106        0.32266666931131       -1.90135812990646
C            4.22405736703046        2.89309115689551       -0.91711423238066
O            3.52267804206604        3.74090618209301       -1.74952453819777
O            5.14340982742002        3.34226507851877        0.00243581259066
H            5.56983167332704        2.58370093990208        0.45977893268866
C            4.88213408778600        0.74546029825768       -1.98522662691973
H            4.01227143363532        0.98713084405217       -0.02690969622527
C            4.59883910619099       -0.71159073466866       -2.11981760365445
H            5.91502520554585        0.89498480830640       -1.65505012379922
H            4.80360403923939        1.22568928123434       -2.96530118164507
C            4.78343951218559       -1.70223610371616       -1.11031382385242
C            5.33023608784425       -1.65864038464482        0.18392800694244
C            5.34184821297120       -2.80536988637922        0.92897454689210
C            4.82132420206858       -4.00746630445473        0.42210127826116
C            4.28469168481920       -4.07316610869365       -0.83475796196272
C            4.26228672983105       -2.90967932603397       -1.61434557596737
H            5.72999546768130       -0.73678489523113        0.56711331595638
H            5.75560453588022       -2.78840868021537        1.92367926499241
H            4.84385407109572       -4.89225161991773        1.03658490873747
H            3.88008355251876       -4.98806488775478       -1.22902188953528
N            3.77908020489132       -2.65507163488965       -2.88610054208645
C            3.98085732309683       -1.32918165178738       -3.17994853294338
H            3.32380280440892       -3.34667956740646       -3.48459431915106
H            3.67417145907105       -0.84667188586966       -4.09405525301611
