48
Energy =
C    -3.3616828    2.7374045   -0.1001525 
C    -2.0580986    2.5209436   -0.4098852 
C    -3.7720161    2.6965899    1.1957073 
C    -2.8734752    2.4397680    2.1733939 
C    -1.5688387    2.2223017    1.8692725 
C    -1.1527343    2.2652301    0.5740298 
H    -1.7430022    2.5546633   -1.4499944 
H    -3.2131799    2.4101988    3.2028656 
H    -0.8631452    2.0147436    2.6690087 
H    -4.0749354    2.9420575   -0.8911940 
C     0.2947274    2.0022982    0.2244935 
C     0.5149005    0.5576157   -0.2847741 
H     0.9551751    2.2058592    1.0976562 
H     0.6106704    2.7251683   -0.5624706 
C     1.9188384    0.3794570   -0.8391106 
O    -5.1080902    2.9119889    1.5489644 
H    -5.7163127    3.1066360    0.7611938 
O     2.0439796    0.2343551   -2.2153989 
N     0.2312384   -0.4255406    0.7767840 
H    -0.1657792    0.3703078   -1.1497697 
H     0.6455625   -0.1097278    1.6850072 
H    -0.8046215   -0.4788800    0.9236637 
N     3.0571535    0.5773552    0.0382362 
C     4.4787413    0.4932428   -0.4115493 
H     2.9211577   -0.0370567    0.8711758 
C     5.2027005    1.7503615    0.0729496 
O     5.4323611    2.8072223   -0.8028376 
O     5.6224238    1.8818353    1.3982677 
H     5.3317966    1.0994069    1.9650814 
C     4.7398446    0.2814436   -1.9262247 
H     4.9997948   -0.3320450    0.1176566 
C     4.4759210   -1.0783183   -2.5797462 
H     5.8211582    0.4801680   -2.1043705 
H     4.2147143    1.0812812   -2.4962048 
C     4.0300089   -2.2671372   -2.0928183 
C     3.6477422   -2.6541114   -0.8424002 
C     3.2328658   -3.9376130   -0.6447525 
C     3.2018199   -4.8215871   -1.6818999 
C     3.5840985   -4.4280817   -2.9252463 
C     3.9903218   -3.1532801   -3.0997422 
H     3.6472101   -1.9937307    0.0017377 
H     2.9199751   -4.2580673    0.3463179 
H     2.8674271   -5.8425924   -1.5152811 
H     3.5628302   -5.1180245   -3.7620999 
N     4.4192394   -2.5745962   -4.3189250 
C     4.7086732   -1.2413633   -3.8974199 
H     4.5066547   -3.0086539   -5.2665828 
H     5.0674895   -0.4600825   -4.5645050 
