48
Energy =
C    -2.1306416    2.6541418    2.5406181 
C    -1.5843344    1.7878481    1.6505055 
C    -1.3921934    3.6845088    3.0328410 
C    -0.1110200    3.8412516    2.6290063 
C     0.4402615    2.9781277    1.7384512 
C    -0.2933755    1.9430165    1.2458077 
H    -2.1885517    0.9724441    1.2615322 
H     0.4663367    4.6678080    3.0280851 
H     1.4707347    3.1200576    1.4242758 
H    -3.1596899    2.5208748    2.8559188 
C     0.3169404    0.9895796    0.2423631 
C     0.3546125    1.5797772   -1.1872452 
H    -0.2342884    0.0220536    0.2274904 
H     1.3517053    0.7418141    0.5695788 
C     1.1976099    0.6967547   -2.1007059 
O    -1.9243454    4.5950009    3.9517932 
H    -2.8897285    4.4098592    4.2010208 
O     0.7267503   -0.5774238   -2.3914929 
N    -1.0077576    1.7402987   -1.7245036 
H     0.8416983    2.5794968   -1.1606721 
H    -1.4945731    0.8120208   -1.7191645 
H    -1.5573964    2.3954205   -1.1222540 
N     2.5508347    1.0921710   -2.4285282 
C     3.5645002    0.2919585   -3.1680017 
H     2.8473588    2.0372186   -2.0949017 
C     4.2269997    1.1705320   -4.2298172 
O     3.8547855    1.0566650   -5.5650432 
O     5.2047240    2.1069256   -3.8904104 
H     5.3429182    2.1671436   -2.8931032 
C     3.0581803   -1.0394812   -3.8035330 
H     4.3793893    0.0543928   -2.4551362 
C     3.0688895   -2.2290594   -2.8504018 
H     3.7266919   -1.3286711   -4.6451683 
H     2.0746751   -0.8587787   -4.2816082 
C     2.1122928   -3.1687804   -2.6999132 
C     0.8764430   -3.2634504   -3.2577127 
C     0.1040975   -4.3480462   -2.9570207 
C     0.5761917   -5.3197021   -2.1205410 
C     1.8204450   -5.2113210   -1.5769094 
C     2.5608689   -4.1249908   -1.8819839 
H     0.4886832   -2.4803548   -3.9014518 
H    -0.8951890   -4.4366260   -3.3779869 
H    -0.0435801   -6.1820390   -1.8851639 
H     2.2131841   -5.9772277   -0.9159097 
N     3.8845321   -3.8507049   -1.4528206 
C     4.1451884   -2.6205154   -2.1378632 
H     4.5046332   -4.4048146   -0.8173833 
H     5.1111390   -2.1213473   -2.1319718 
