48
Energy =
C    -0.2349009    6.6258609   -5.1525422 
C     0.1097245    5.6548483   -4.2690951 
C     0.6850788    7.1121846   -6.0281764 
C     1.9455394    6.6224790   -6.0135818 
C     2.2959486    5.6515804   -5.1333437 
C     1.3796263    5.1626245   -4.2520614 
H    -0.6396272    5.2739061   -3.5795241 
H     2.6721245    7.0168790   -6.7160003 
H     3.3160588    5.2728441   -5.1403548 
H    -1.2487098    7.0118230   -5.1583344 
C     1.7647662    4.0674900   -3.2816213 
C     1.7649959    2.6675324   -3.9480265 
H     1.0854377    4.0644298   -2.4003040 
H     2.7795308    4.2984674   -2.8779227 
C     2.3586918    1.6287820   -3.0136171 
O     0.3611215    8.1111093   -6.9515843 
H    -0.6002991    8.4287053   -6.8965886 
O     1.8879571    1.5134935   -1.7093737 
N     0.4026206    2.2774716   -4.3607391 
H     2.4399845    2.6823867   -4.8408215 
H    -0.2511757    2.3257237   -3.5413669 
H     0.0451097    2.9282509   -5.0994036 
N     3.5355244    0.9069233   -3.3939020 
C     4.8001499    1.3276203   -2.7626442 
H     3.4467760    0.1144772   -4.0686353 
C     5.1073879    2.7957587   -3.0528068 
O     4.7873511    3.3384853   -4.2909659 
O     5.6771982    3.6325190   -2.0983845 
H     5.9541540    3.1267364   -1.2699930 
C     5.9346780    0.4110272   -3.2596648 
H     4.6966856    1.2137343   -1.6588535 
C     7.2243397    0.6659246   -2.5120705 
H     6.0907608    0.5744674   -4.3508498 
H     5.6416428   -0.6543601   -3.1366728 
C     7.5776186    0.1556573   -1.3224232 
C     6.9176499   -0.7183889   -0.5199135 
C     7.4939055   -1.0714541    0.6648677 
C     8.7044349   -0.5481956    1.0274504 
C     9.3454615    0.3329075    0.2077739 
C     8.7567586    0.6634924   -0.9606791 
H     5.9526274   -1.1287125   -0.8027609 
H     6.9863639   -1.7700190    1.3257873 
H     9.1556850   -0.8323079    1.9747668 
H    10.3021645    0.7632877    0.4835438 
N     9.2390992    1.5739249   -1.9384846 
C     8.1813272    1.5241968   -2.9061771 
H    10.1256907    2.1283044   -1.9509972 
H     8.1350169    2.1367893   -3.8059436 
