48
Energy =
C     0.4149667   -0.0450904    1.6048854 
C     0.3664753    0.0592695    0.2530792 
C     0.5022111   -1.2676245    2.1928605 
C     0.5370540   -2.3786382    1.4227455 
C     0.4905791   -2.2803215    0.0699880 
C     0.4099900   -1.0582517   -0.5251858 
H     0.3017088    1.0451850   -0.2024746 
H     0.6029977   -3.3478086    1.9046695 
H     0.5211110   -3.1851858   -0.5311604 
H     0.3861484    0.8526537    2.2127858 
C     0.3725260   -0.9410208   -2.0365926 
C     1.7519202   -0.6611832   -2.6811279 
H    -0.3275551   -0.1214677   -2.3179188 
H    -0.0552598   -1.8653911   -2.4824102 
C     2.3828367    0.6399104   -2.1860645 
O     0.5587896   -1.4104577    3.5829618 
H     0.5182506   -0.5314304    4.0873664 
O     1.9265628    1.8334601   -2.7307260 
N     2.6468928   -1.8315271   -2.5709652 
H     1.5701108   -0.4678722   -3.7659216 
H     2.6528454   -2.2020478   -1.5922553 
H     2.2677776   -2.6034346   -3.1699638 
N     3.2483198    0.6966340   -1.0313798 
C     4.5979334    1.2121788   -1.3601879 
H     3.3316207   -0.2560898   -0.6131101 
C     4.5962110    2.7221551   -1.6348316 
O     5.4085927    3.2478030   -2.6346433 
O     3.8997888    3.6117750   -0.8190295 
H     3.2437075    3.1228946   -0.2287595 
C     5.2543500    0.3769380   -2.4985685 
H     5.2196017    1.1128801   -0.4416572 
C     6.7658503    0.3979095   -2.4194518 
H     4.9141933    0.7577175   -3.4890135 
H     4.9092899   -0.6792227   -2.4546172 
C     7.5316413   -0.3588739   -1.6181104 
C     7.1728168   -1.3123733   -0.7199740 
C     8.1570380   -1.9392155   -0.0137604 
C     9.4687198   -1.6060346   -0.2114880 
C     9.8043615   -0.6428988   -1.1163514 
C     8.8129696   -0.0388967   -1.8042997 
H     6.1315789   -1.5751043   -0.5562204 
H     7.8975715   -2.7061119    0.7125388 
H    10.2471976   -2.1086199    0.3574223 
H    10.8394562   -0.3630124   -1.2813065 
N     8.9432629    0.9902427   -2.7742622 
C     7.5687861    1.2216016   -3.1175306 
H     9.8078691    1.4491566   -3.1433559 
H     7.2244342    1.9836354   -3.8183098 
