48
Energy =
C     3.2748050   -4.7964582    1.2217272 
C     3.4383262   -3.8258893    0.2877128 
C     3.9051160   -4.7023467    2.4229368 
C     4.6947612   -3.6350974    2.6814807 
C     4.8620201   -2.6612499    1.7510937 
C     4.2369587   -2.7534100    0.5458493 
H     2.9229141   -3.9132024   -0.6649626 
H     5.1899754   -3.5703016    3.6442635 
H     5.4979653   -1.8096957    1.9799299 
H     2.6375581   -5.6470338    1.0062356 
C     4.4104896   -1.6600922   -0.4835675 
C     3.5514101   -0.4129691   -0.1644132 
H     4.1665016   -2.0355618   -1.5023079 
H     5.4858999   -1.3729141   -0.5162800 
C     3.8820813    0.7247007   -1.1087766 
O     3.7576380   -5.6851947    3.4071772 
H     3.1506855   -6.4516132    3.1380006 
O     4.4914016    1.8757761   -0.6232798 
N     2.1164002   -0.7349214   -0.2267423 
H     3.7994685   -0.0397187    0.8580368 
H     1.8881804   -1.1967466   -1.1387672 
H     1.8689239   -1.4010280    0.5420739 
N     3.6417128    0.5854705   -2.5154031 
C     4.9008752    0.6580567   -3.2989362 
H     2.9966649    1.3706787   -2.7727117 
C     5.2753195    2.0853846   -3.7225281 
O     4.2935392    2.9505107   -4.1913050 
O     6.6047209    2.5042633   -3.7783932 
H     7.2396798    1.8235691   -3.3919512 
C     4.7851738   -0.2750296   -4.5225357 
H     5.7526926    0.2677639   -2.6950606 
C     3.5267268   -0.0306233   -5.3324590 
H     4.8117810   -1.3304438   -4.1771980 
H     5.6748065   -0.1498858   -5.1808495 
C     2.3472705   -0.6596207   -5.1978145 
C     1.9825362   -1.6580995   -4.3518999 
C     0.6992025   -2.1170357   -4.4043101 
C    -0.1918577   -1.5755269   -5.2890911 
C     0.1950413   -0.5709089   -6.1256581 
C     1.4708001   -0.1364352   -6.0568567 
H     2.6857746   -2.0808344   -3.6424608 
H     0.3816602   -2.9143970   -3.7369121 
H    -1.2144110   -1.9433566   -5.3228519 
H    -0.5007073   -0.1243227   -6.8278802 
N     2.0638860    0.9053544   -6.8182725 
C     3.3942285    0.9157735   -6.2790046 
H     1.6466560    1.4964646   -7.5738464 
H     4.1675477    1.6352042   -6.5495617 
