48
Energy =
C    -1.3923285    1.6724443    2.0319182 
C    -0.7187795    2.6597618    1.3888224 
C    -2.2247014    0.8494070    1.3396465 
C    -2.3772588    1.0204024    0.0069789 
C    -1.7077300    2.0068412   -0.6407502 
C    -0.8769091    2.8371192    0.0481821 
H    -0.0530705    3.3062196    1.9549760 
H    -3.0399352    0.3549508   -0.5358086 
H    -1.8374996    2.1219143   -1.7146434 
H    -1.2618300    1.5410719    3.1007598 
C    -0.1021271    3.9201396   -0.6714626 
C     1.3190607    3.4420278   -1.0529851 
H    -0.0391335    4.8159912   -0.0152375 
H    -0.6485932    4.2464204   -1.5868929 
C     1.2960172    2.3321360   -2.0923718 
O    -2.9309667   -0.1787909    1.9715416 
H    -2.7667960   -0.2387965    2.9704170 
O     0.3625170    2.3484896   -3.1216214 
N     2.1198461    4.5762070   -1.5362860 
H     1.8136482    3.0140815   -0.1505554 
H     1.7046587    4.9545902   -2.4227980 
H     2.1269204    5.3499492   -0.8318135 
N     2.2605782    1.2743159   -2.0628864 
C     3.6812322    1.6404609   -2.2441441 
H     1.9216185    0.3050686   -1.8662620 
C     3.9282516    2.4240131   -3.5382174 
O     4.7760526    3.5251388   -3.5129889 
O     3.3784403    2.0319489   -4.7583709 
H     2.6915136    1.3043572   -4.6229330 
C     4.5322128    0.3543789   -2.1822867 
H     3.9937104    2.3110018   -1.4112824 
C     6.0149682    0.6570574   -2.1364787 
H     4.2956550   -0.3035532   -3.0470475 
H     4.2613006   -0.2206153   -1.2691009 
C     6.8574829    0.7540200   -3.1784343 
C     6.6261346    0.5934859   -4.5071058 
C     7.6687330    0.7556371   -5.3711525 
C     8.9134260    1.0708407   -4.9009159 
C     9.1225176    1.2281500   -3.5630522 
C     8.0749419    1.0632332   -2.7281059 
H     5.6375769    0.3542537   -4.8866117 
H     7.5057074    0.6415869   -6.4400114 
H     9.7375629    1.2032734   -5.5969856 
H    10.1019002    1.4841415   -3.1740988 
N     8.0776776    1.1901729   -1.3128866 
C     6.7031475    0.9185934   -1.0111556 
H     8.8713159    1.4147038   -0.6705909 
H     6.2793120    0.9355364   -0.0102525 
