48
 energy: -9.069020194050 gnorm: 0.000677813884 xtb: 6.6.0 (2ccbbd7)
C            3.77721714821760        0.72120016584841        5.15143436808856
C            4.03763168651189       -0.03553144134329        4.03199364522860
C            2.94277037780182        1.83841953945445        5.08018786490873
C            2.38418113988110        2.16414197683889        3.84364306790177
C            2.65445988833451        1.39879939108744        2.74110663885950
C            3.47327916476847        0.28808468129587        2.80474643651201
H            4.69014774170106       -0.88908063849170        4.09966648231483
H            1.74605890397398        3.02653881540903        3.77292755425454
H            2.20894441312855        1.64916678437663        1.62367193108956
H            4.21921425022778        0.45999050942424        6.09618898547582
C            3.79371893693058       -0.51649463059794        1.57742496816489
C            2.65820429856604       -0.59799231790328        0.54406772129475
H            4.06959793334895       -1.53061369685363        1.88305516450006
H            4.68282304282906       -0.10025877452235        1.09579673159280
C            2.44968052400560        0.71363027234443       -0.15718386041542
O            2.66354392795884        2.61822983316366        6.18588934245779
H            3.13535958096273        2.26842032775695        6.97236704525778
O            1.91202714769369        1.76619189762280        0.53814204675395
N            2.87908133197887       -1.65883891070789       -0.43480314560806
H            1.72275752070300       -0.83941569437524        1.07262904972204
H            3.60300411714123       -1.36164404166699       -1.08200720957925
H            3.18598112903747       -2.51364036569167        0.01329927705287
N            2.84427740878956        0.85829497529003       -1.50736116956475
C            4.14723055134785        1.45330078339577       -1.82710410754502
H            2.15723811513153        1.28254723466838       -2.12498605014728
C            4.00853239604098        2.94345668820982       -2.09884587036684
O            4.70982445663097        3.45002799190458       -2.94908260215934
O            3.10032720228785        3.61090381201981       -1.34706933720306
H            2.66899034125865        3.00315985506607       -0.69162043873402
C            4.79344332098708        0.71939252526944       -3.00671991061858
H            4.78265808446981        1.34437593545764       -0.93685025700890
C            3.92077183710242        0.69142537690665       -4.21568076389928
H            5.04340191987795       -0.30590145685893       -2.71862523650637
H            5.73840319341689        1.21026001508308       -3.26275478357104
C            3.26685478519594       -0.43966726828412       -4.78880596740441
C            3.22416338859938       -1.80091969255672       -4.44109211647167
C            2.48178147178771       -2.65167438900213       -5.21247145110598
C            1.77034495330574       -2.18682387973126       -6.33069181733074
C            1.79150119546558       -0.86546386977225       -6.68433219354564
C            2.54492981539427        0.02349088980226       -5.90725132631678
H            3.76072537550192       -2.15246967029937       -3.57832155461617
H            2.43782101742758       -3.69771230079035       -4.95802045302448
H            1.19604133071349       -2.88454958671818       -6.91741815692226
H            1.24667252713710       -0.50007429820228       -7.53630534119668
N            2.74541646140822        1.39026847515835       -5.99827138712687
C            3.56557977073615        1.78039825952555       -4.96989841525118
H            2.31737953208532        2.00009618676335       -6.69725639300032
H            3.87331104933161        2.79206584524868       -4.75916331015230
