48
Energy =
C     1.0762529   -1.7557137    2.0753752 
C     0.6952452   -1.6164140    0.7808871 
C     1.6884361   -2.8969842    2.4882136 
C     1.9142980   -3.8926834    1.6014617 
C     1.5379610   -3.7579529    0.3045136 
C     0.9279045   -2.6156025   -0.1158505 
H     0.2099318   -0.6950257    0.4657677 
H     2.4018146   -4.7986067    1.9446509 
H     1.7307859   -4.5686394   -0.3932297 
H     0.8911557   -0.9503771    2.7778515 
C     0.5180374   -2.4537612   -1.5663015 
C     1.5577810   -1.7081914   -2.4355143 
H    -0.4468083   -1.8993050   -1.6108957 
H     0.3111806   -3.4476970   -2.0190521 
C     1.8355013   -0.2879165   -1.9342194 
O     2.0958790   -3.0721767    3.8144366 
H     1.8945538   -2.2795215    4.4145261 
O     0.8147346    0.6510014   -2.0374440 
N     2.7783536   -2.5137560   -2.6213447 
H     1.0921873   -1.5714060   -3.4379764 
H     3.1636091   -2.8222243   -1.6988000 
H     2.5320315   -3.3877712   -3.1442566 
N     2.9416411    0.0151239   -1.0668441 
C     4.1383416    0.6338733   -1.6986482 
H     3.1940549   -0.8401268   -0.5233953 
C     4.3359889    2.0636070   -1.2039151 
O     5.6168570    2.4844028   -0.8630695 
O     3.2916734    2.9845348   -1.1308902 
H     2.4149176    2.5667578   -1.4131377 
C     4.2495166    0.4888866   -3.2542405 
H     5.0289695    0.0994345   -1.2923608 
C     3.5606941    1.5856082   -4.0515071 
H     3.8982821   -0.5119588   -3.5868495 
H     5.3269622    0.4952404   -3.5294431 
C     4.0711446    2.7895692   -4.3673663 
C     5.2815604    3.3300402   -4.0689363 
C     5.5578277    4.5901570   -4.5111598 
C     4.6349922    5.2828317   -5.2442512 
C     3.4300598    4.7185965   -5.5394155 
C     3.1792768    3.4720017   -5.0871388 
H     6.0177330    2.7881610   -3.4829224 
H     6.5148741    5.0477913   -4.2727066 
H     4.8614313    6.2882042   -5.5895775 
H     2.6863449    5.2538914   -6.1194080 
N     2.0008690    2.7090911   -5.2897098 
C     2.3313052    1.5009656   -4.5937677 
H     1.1337785    2.9538260   -5.8192381 
H     1.6755264    0.6373355   -4.5362485 
