48
Energy =
C     1.3959081    4.9641538   -3.2769463 
C     0.8302040    3.7632195   -3.5583531 
C     0.7642675    5.8393784   -2.4514763 
C    -0.4281595    5.5030789   -1.9087911 
C    -0.9877488    4.2944857   -2.1716172 
C    -0.3571002    3.4140067   -2.9969370 
H     1.3437088    3.0711849   -4.2203696 
H    -0.9207800    6.2087629   -1.2492830 
H    -1.9349185    4.0343584   -1.7075389 
H     2.3620549    5.2150667   -3.7017263 
C    -0.9425162    2.0402291   -3.2502286 
C    -0.3294509    0.9404598   -2.3459543 
H    -0.7911420    1.7630678   -4.3186770 
H    -2.0439755    2.0615064   -3.1003086 
C     1.1270244    0.6453528   -2.6880466 
O     1.3151871    7.0882647   -2.1455117 
H     2.2456950    7.2307790   -2.5236485 
O     1.4235689    0.2388841   -3.9854645 
N    -0.5233447    1.2636308   -0.9192759 
H    -0.8576911   -0.0160412   -2.5645841 
H     0.0595689    2.0981247   -0.6644673 
H    -1.5235065    1.5165304   -0.7425019 
N     2.0559796    0.3131854   -1.6460824 
C     3.4642699    0.7416842   -1.7567893 
H     1.6909638   -0.1764697   -0.7982772 
C     3.6436367    2.1623549   -2.3095098 
O     3.7812671    3.2161422   -1.4151666 
O     3.6773466    2.4544269   -3.6747005 
H     3.4387685    1.6486875   -4.2306345 
C     4.2560435   -0.3514658   -2.5062566 
H     3.8733273    0.8029404   -0.7230421 
C     5.7408902   -0.0539751   -2.5582982 
H     3.8273327   -0.5071251   -3.5177285 
H     4.1063173   -1.3200967   -1.9821075 
C     6.4762999    0.2605392   -3.6398062 
C     6.1139087    0.3789534   -4.9444427 
C     7.0709849    0.7139270   -5.8566739 
C     8.3624871    0.9205071   -5.4593985 
C     8.7055373    0.7925347   -4.1468264 
C     7.7412077    0.4615628   -3.2626225 
H     5.0930848    0.2166142   -5.2715329 
H     6.8040437    0.8200788   -6.9054753 
H     9.1185809    1.1896843   -6.1926548 
H     9.7255005    0.9533483   -3.8147017 
N     7.8916058    0.2761261   -1.8628515 
C     6.5506738   -0.0549152   -1.4837943 
H     8.7518147    0.3520384   -1.2731627 
H     6.2374977   -0.2649577   -0.4635518 
