48
Energy =
C     0.5953062   -1.7292638    1.5533860 
C     1.5937610   -1.2224289    2.3199058 
C    -0.5511763   -1.0216698    1.3692183 
C    -0.6891022    0.1909837    1.9509504 
C     0.3052886    0.7021481    2.7186697 
C     1.4529911   -0.0042129    2.9132211 
H     2.5104347   -1.7941708    2.4477500 
H    -1.6042719    0.7496322    1.7901275 
H     0.1804603    1.6827906    3.1694040 
H     0.7181863   -2.7002857    1.0856542 
C     2.5801249    0.5755580    3.7449430 
C     3.4992476    1.5097945    2.9297595 
H     3.1904981   -0.2470436    4.1821870 
H     2.1578888    1.1325669    4.6098462 
C     4.1187703    0.7857712    1.7429099 
O    -1.5998295   -1.5157691    0.5875002 
H    -1.4164716   -2.4257950    0.1789688 
O     5.0352108   -0.2353191    1.9740359 
N     2.7446365    2.7089836    2.5266342 
H     4.3555935    1.8099389    3.5779853 
H     2.5174733    3.2741506    3.3782425 
H     3.3499310    3.3195368    1.9261358 
N     3.5899668    0.9571143    0.4229586 
C     4.5483537    1.2285410   -0.6600234 
H     2.5550740    0.9133057    0.2759335 
C     4.0507995    2.3638169   -1.5516231 
O     2.7163267    2.3959615   -1.9416528 
O     4.9148684    3.3402557   -2.0493970 
H     5.8739286    3.1711074   -1.7844910 
C     4.7492506   -0.0730852   -1.4553639 
H     5.5274653    1.5415785   -0.2280007 
C     5.8766645    0.0473465   -2.4562395 
H     3.8016955   -0.3658631   -1.9586052 
H     4.9893203   -0.8944374   -0.7424500 
C     5.7855878    0.4300083   -3.7404967 
C     4.6959642    0.7741787   -4.4745167 
C     4.8800053    1.1408214   -5.7751550 
C     6.1351933    1.1576813   -6.3175809 
C     7.2149195    0.8103884   -5.5612016 
C     7.0072174    0.4514044   -4.2768459 
H     3.6981529    0.7747014   -4.0453435 
H     4.0235636    1.4291333   -6.3801977 
H     6.2731421    1.4558051   -7.3538634 
H     8.2178624    0.8248815   -5.9738597 
N     7.9889157    0.0726502   -3.3221672 
C     7.1726385   -0.1654199   -2.1687619 
H     9.0256074   -0.0092734   -3.4312084 
H     7.5560892   -0.4617956   -1.1949683 
