48
Energy =
C    -2.7902586   -2.7566532   -0.3102833 
C    -1.7014654   -2.0188101    0.0247683 
C    -3.1061360   -2.9541871   -1.6182679 
C    -2.3297490   -2.4101405   -2.5829070 
C    -1.2401420   -1.6714732   -2.2540294 
C    -0.9174632   -1.4747474   -0.9458863 
H    -1.4618453   -1.8665923    1.0746002 
H    -2.5936622   -2.5728551   -3.6220897 
H    -0.6317858   -1.2385976   -3.0445126 
H    -3.4081875   -3.1873843    0.4702291 
C     0.2863983   -0.6401166   -0.5729848 
C    -0.1037598    0.7911921   -0.1367953 
H     0.9962989   -0.5926135   -1.4243715 
H     0.8321931   -1.1453092    0.2566097 
C     1.1035882    1.5434554    0.4013975 
O    -4.2207420   -3.7090732   -1.9977311 
H    -4.7522331   -4.0806027   -1.2178613 
O     1.6358327    1.1691359    1.6310823 
N    -0.7583155    1.5189800   -1.2397824 
H    -0.8050708    0.7311012    0.7285545 
H    -0.2216223    1.3872864   -2.1293086 
H    -1.7148224    1.1225793   -1.3988796 
N     1.8109943    2.5002265   -0.4008731 
C     3.2716133    2.3307364   -0.5326351 
H     1.2630947    3.2241424   -0.9199350 
C     3.9068865    3.5109677   -1.2446171 
O     4.6883145    4.4158327   -0.5385625 
O     3.7262146    3.6821423   -2.6150855 
H     3.0115052    2.8569734   -2.9917123 
C     3.6078650    1.0058527   -1.2598099 
H     3.7297128    2.3167217    0.4849848 
C     3.0463924    0.8861095   -2.6752159 
H     3.2372319    0.1597293   -0.6411849 
H     4.7151941    0.8984508   -1.3130876 
C     3.1347602   -0.2310961   -3.4039908 
C     3.7630733   -1.3999814   -3.1033494 
C     3.6940867   -2.4262462   -3.9971807 
C     3.0013596   -2.2743822   -5.1635489 
C     2.3762102   -1.0956755   -5.4376991 
C     2.4644948   -0.0916730   -4.5366078 
H     4.3134019   -1.5255483   -2.1753587 
H     4.1916168   -3.3689454   -3.7804710 
H     2.9471011   -3.0958877   -5.8740894 
H     1.8163990   -0.9620106   -6.3574620 
N     1.8483565    1.1814225   -4.6459530 
C     2.2135695    1.9388888   -3.4288461 
H     1.2688362    1.5029723   -5.4590509 
H     2.4034620    2.8516884   -4.0332107 
