48
Energy =
C    -0.1006795    3.7614270   -4.3844285 
C     1.0997798    3.1298208   -4.4020912 
C    -1.1402013    3.2731841   -5.1101378 
C    -0.9699244    2.1577091   -5.8540589 
C     0.2278646    1.5202685   -5.8747697 
C     1.2715016    1.9910330   -5.1350587 
H     1.9200976    3.5538166   -3.8260823 
H    -1.8062283    1.7843311   -6.4359170 
H     0.3430608    0.6340113   -6.4914185 
H    -0.2231422    4.6615555   -3.7899242 
C     2.6165835    1.2811482   -5.1678046 
C     2.7283213    0.0340981   -4.2395331 
H     3.4207518    2.0035616   -4.8972510 
H     2.8375721    0.9725657   -6.2128424 
C     2.7192484    0.3522173   -2.7488816 
O    -2.3894461    3.8994123   -5.1153989 
H    -2.4400821    4.7241593   -4.5258321 
O     2.8818355   -0.6724242   -1.8222787 
N     1.7167419   -0.9782943   -4.5784862 
H     3.7296916   -0.4220552   -4.4124596 
H     0.7630421   -0.6644216   -4.2799447 
H     1.7135435   -1.1725161   -5.6064103 
N     2.7197795    1.7105876   -2.2935189 
C     3.9344696    2.0626555   -1.5234015 
H     1.8953554    1.7776393   -1.6509357 
C     3.8088640    3.4848731   -0.9785405 
O     3.2789605    4.4854029   -1.7865765 
O     4.2724042    3.8310137    0.2898392 
H     4.7151428    3.0552676    0.7585692 
C     5.1985005    1.9508052   -2.4106116 
H     4.0287394    1.3771318   -0.6477315 
C     6.4577673    2.1424315   -1.5963181 
H     5.1546451    2.7106147   -3.2222556 
H     5.2568272    0.9579249   -2.9007351 
C     7.0718600    1.2172219   -0.8434608 
C     6.7581823   -0.0887058   -0.6428962 
C     7.5443732   -0.8212918    0.1969968 
C     8.6161918   -0.2433274    0.8200110 
C     8.9067412    1.0721320    0.6086626 
C     8.1163479    1.7747222   -0.2297008 
H     5.8989325   -0.5464233   -1.1265725 
H     7.3132915   -1.8687316    0.3762867 
H     9.2351397   -0.8329884    1.4915366 
H     9.7466915    1.5487719    1.1024013 
N     8.2257354    3.1511931   -0.5634281 
C     7.1053369    3.3105882   -1.4452658 
H     8.9341377    3.8560331   -0.2556906 
H     6.7891862    4.2571769   -1.8820163 
