48
Energy =
C     0.5248849   -4.7178969    1.3321433 
C     1.1060973   -3.5492176    0.9609528 
C    -0.6431187   -5.1127626    0.7586563 
C    -1.2207869   -4.3350163   -0.1849507 
C    -0.6439234   -3.1652595   -0.5603539 
C     0.5222016   -2.7623618    0.0151160 
H     2.0442645   -3.2518286    1.4217424 
H    -2.1502469   -4.6633934   -0.6370862 
H    -1.1207109   -2.5567763   -1.3247442 
H     0.9984025   -5.3367548    2.0865187 
C     1.1741465   -1.4669188   -0.4162462 
C     1.9734024   -1.6328182   -1.7284822 
H     1.8377373   -1.0789851    0.3871883 
H     0.3793372   -0.6990697   -0.5560938 
C     2.3633713   -0.2821254   -2.3000497 
O    -1.2684744   -6.3109622    1.1186142 
H    -0.7718747   -6.8369721    1.8293187 
O     1.7035177    0.2113534   -3.4195538 
N     3.1575488   -2.4868519   -1.5149456 
H     1.3153884   -2.0974166   -2.5034155 
H     3.6797674   -2.1827317   -0.6586921 
H     2.8475088   -3.4750629   -1.3535839 
N     3.4021114    0.5024548   -1.6951035 
C     4.6988381    0.6915308   -2.3849206 
H     3.2230636    0.9144328   -0.7526724 
C     4.8852806    2.1460629   -2.8049932 
O     6.0262971    2.8264088   -2.3975535 
O     3.9596076    2.8135055   -3.6067770 
H     3.1551145    2.2326063   -3.7996140 
C     4.9036373   -0.2944664   -3.5681580 
H     5.5003057    0.4919628   -1.6377600 
C     6.3324750   -0.2823531   -4.0667946 
H     4.2045903   -0.0588542   -4.4001359 
H     4.6532530   -1.3307385   -3.2410181 
C     6.8441519    0.4799221   -5.0477038 
C     6.2390669    1.3931496   -5.8504111 
C     6.9979805    2.0469259   -6.7759062 
C     8.3348084    1.7809968   -6.8859881 
C     8.9212102    0.8600417   -6.0696055 
C     8.1492334    0.2266000   -5.1616160 
H     5.1796056    1.6137929   -5.7629784 
H     6.5370740    2.7882384   -7.4245166 
H     8.9331475    2.3099255   -7.6235449 
H     9.9810722    0.6409144   -6.1400575 
N     8.5621181   -0.7513968   -4.2173834 
C     7.3263618   -1.0226060   -3.5443048 
H     9.5111489   -1.1619454   -4.0617696 
H     7.2180285   -1.7214608   -2.7175583 
