48
 energy: -9.289111034738 gnorm: 0.000901392316 xtb: 6.6.0 (2ccbbd7)
C           -3.73787156046730        2.24393660088285       -0.09100640594779
C           -2.42998904488450        2.33473538828463       -0.50516003988888
C           -4.05635843037419        1.64893107913125        1.13023111203974
C           -3.01548139129575        1.15174011116549        1.91411987736637
C           -1.71046974040667        1.24766927902603        1.49381988398350
C           -1.39737906770092        1.84458206766665        0.28099820509842
H           -2.19450616253317        2.78894776551931       -1.45254805261558
H           -3.26141432907613        0.69141517272814        2.85444377366633
H           -0.91711186112925        0.85537808452087        2.10681939909454
H           -4.53026439487333        2.62956891345013       -0.70724883566949
C            0.01792802845042        1.90738686758164       -0.20014083158575
C            0.36049303317049        0.78713286978407       -1.18574797882642
H            0.70088408856293        1.85853501967358        0.65287132364549
H            0.20309794155507        2.87953099851128       -0.66954447866745
C            1.75027437511123        0.97752014504728       -1.74898544406711
O           -5.36010092379890        1.53944049188132        1.57506465730776
H           -5.97406746688915        1.93679506705565        0.92037913491679
O            1.86918158829166        1.41514023476196       -2.87675277156956
N            0.20028233401572       -0.54043634518200       -0.60785926284408
H           -0.33113711071670        0.84598145671141       -2.04167750596115
H            0.86130719265999       -0.67547157045155        0.14548131196377
H           -0.72747244486730       -0.64761898664780       -0.21789405663776
N            2.82345159713413        0.68679071494589       -0.93643359140338
C            4.21546581887215        0.90671552459335       -1.33772787608803
H            2.68677908318547        0.53415918042733        0.06381743805108
C            4.58304369177895        2.37013091156270       -1.18291604610789
O            5.56152529660416        2.65626501984560       -0.52802540945198
O            3.77346841099521        3.23984247831007       -1.82771225912400
H            3.05199608340796        2.72111719519601       -2.26022985890559
C            4.48232138596782        0.41042019005084       -2.75724196157247
H            4.86135692639156        0.34025163677371       -0.65043538050029
C            5.89866165620089        0.58588780281405       -3.18363281031087
H            3.82811867650319        0.95138532137401       -3.44633093357921
H            4.19301069419247       -0.64165604972246       -2.84015069970406
C            6.97107316852094       -0.32831388041222       -2.96621654678510
C            7.03652468533585       -1.60352957815232       -2.37945986319994
C            8.25088948297426       -2.22728525967224       -2.30193012994793
C            9.41572178160671       -1.61507309217705       -2.79332030787417
C            9.37602647212501       -0.37300678587934       -3.36530029210090
C            8.14185895399826        0.28265549743090       -3.45546048413728
H            6.14304204109114       -2.06509499634561       -1.99828377900962
H            8.31894652340265       -3.20420485817430       -1.85265994658282
H           10.35706750513860       -2.13302833052996       -2.71318637226654
H           10.26346212850230        0.10605264940189       -3.73837536364980
N            7.78659648314124        1.52560979718944       -3.94914989311036
C            6.43837090288398        1.70596302065201       -3.76614657424952
H            8.44300455171629        2.21530355734616       -4.31991628185481
H            5.89569351600798        2.60554982498897       -4.01054253599567
