48
Energy =
C     4.9560454    1.6757688    0.8989305 
C     3.7032995    2.1973799    0.8676096 
C     5.1649883    0.4296534    1.4006731 
C     4.1174190   -0.2848476    1.8711252 
C     2.8621366    0.2282123    1.8354990 
C     2.6460424    1.4736801    1.3316391 
H     3.5515262    3.1908989    0.4479507 
H     4.2956080   -1.2777480    2.2678641 
H     2.0328191   -0.3674347    2.2070400 
H     5.7878335    2.2548948    0.5104010 
C     1.2426611    2.0423653    1.2703467 
C     0.5059733    1.7285060   -0.0562223 
H     1.2871978    3.1472553    1.4060934 
H     0.6426732    1.6651071    2.1271660 
C     1.2627959    2.2462199   -1.2706023 
O     6.4417377   -0.1414500    1.4372212 
H     7.1694785    0.4635336    1.0707103 
O     1.5883973    3.5947687   -1.3478657 
N     0.1839981    0.2931004   -0.1544931 
H    -0.4506680    2.3006229   -0.0618846 
H     1.0643564   -0.2683163   -0.2462437 
H    -0.3065675   -0.0302188    0.7116510 
N     1.6085227    1.3848023   -2.3612853 
C     3.0370752    1.0505040   -2.5171492 
H     0.8507765    1.0719906   -3.0079639 
C     3.8421123    2.2021163   -3.1149863 
O     5.0647792    2.5377786   -2.5419860 
O     3.4340192    2.8720167   -4.2685199 
H     2.5015638    2.5942605   -4.5345616 
C     3.1762530   -0.2338264   -3.3597411 
H     3.4866014    0.8552682   -1.5186709 
C     2.6905624   -1.4415737   -2.5896633 
H     4.2399529   -0.3945879   -3.6464407 
H     2.6063915   -0.1326252   -4.3101738 
C     3.3723753   -2.1213476   -1.6546386 
C     4.6372562   -1.9398778   -1.1962101 
C     5.0980310   -2.7729342   -0.2199114 
C     4.2953672   -3.7594678    0.2824574 
C     3.0263164   -3.9193135   -0.1897977 
C     2.5952701   -3.0854147   -1.1594805 
H     5.2736848   -1.1490079   -1.5829242 
H     6.1056254   -2.6403165    0.1701253 
H     4.6703420   -4.4160168    1.0635248 
H     2.3750306   -4.6942159    0.1996872 
N     1.3144711   -3.0706086   -1.7733174 
C     1.4586551   -1.9715537   -2.6830287 
H     0.4894479   -3.6912099   -1.6078104 
H     0.6676559   -1.6030616   -3.3311255 
