48
Energy =
C     0.2512776   -1.1230851   -5.3175345 
C     0.4735625   -1.8166472   -4.1708701 
C    -0.9058359   -0.4290962   -5.4833964 
C    -1.8321297   -0.4311127   -4.4986945 
C    -1.6129787   -1.1174013   -3.3485465 
C    -0.4574401   -1.8174586   -3.1782044 
H     1.4100848   -2.3598477   -4.0442578 
H    -2.7493678    0.1288681   -4.6423330 
H    -2.3678927   -1.0984709   -2.5675103 
H     1.0056705   -1.1169644   -6.0973711 
C    -0.2039581   -2.5726478   -1.8890769 
C     0.7506708   -1.8366361   -0.9135135 
H     0.2162321   -3.5765841   -2.1272552 
H    -1.1646440   -2.7738678   -1.3665244 
C     2.1885852   -1.7952377   -1.4115641 
O    -1.1685539    0.2904518   -6.6537134 
H    -0.4005382    0.2858402   -7.3158874 
O     2.7290584   -2.9170277   -2.0343858 
N     0.2399965   -0.4931965   -0.5869117 
H     0.7951274   -2.4332126    0.0249485 
H     0.2442419    0.1044512   -1.4491014 
H    -0.7537260   -0.5658216   -0.2674354 
N     3.0877551   -0.7846919   -0.9366653 
C     3.9199320   -0.0790022   -1.9249662 
H     3.0928821   -0.5442357    0.0792178 
C     3.0901024    0.4478782   -3.0985674 
O     3.1786097   -0.1519174   -4.3520459 
O     2.1975777    1.5067530   -2.9308163 
H     2.1847867    1.8327074   -1.9747519 
C     5.0837069   -0.9998757   -2.3529117 
H     4.3521600    0.8166916   -1.4263124 
C     6.1839281   -0.2328360   -3.0527416 
H     4.6986397   -1.8188083   -3.0044266 
H     5.4982512   -1.5136392   -1.4587253 
C     7.1550383    0.4850387   -2.4673083 
C     7.4136119    0.6865094   -1.1496827 
C     8.4729924    1.4762304   -0.8111260 
C     9.2472158    2.0476721   -1.7830768 
C     8.9662002    1.8331571   -3.0999487 
C     7.9142208    1.0463506   -3.4091020 
H     6.7977513    0.2365487   -0.3767093 
H     8.7022876    1.6534477    0.2368670 
H    10.0888151    2.6771689   -1.5051727 
H     9.5674724    2.2819084   -3.8832862 
N     7.4461284    0.7072468   -4.7064599 
C     6.3183202   -0.1190084   -4.3860970 
H     7.8254349    0.9833383   -5.6410194 
H     5.6526020   -0.5667311   -5.1233501 
