48
Energy =
C     1.1432466    4.4280881    0.1144928 
C     0.7354008    3.5882811   -0.8707112 
C     1.8801445    5.5295542   -0.1874237 
C     2.2178302    5.7752358   -1.4739657 
C     1.8083915    4.9420378   -2.4642124 
C     1.0538939    3.8457559   -2.1706794 
H     0.1624440    2.6994880   -0.6098088 
H     2.8337463    6.6391412   -1.6993980 
H     2.1062518    5.1517548   -3.4882040 
H     0.8808227    4.2155576    1.1457768 
C     0.5842134    2.9145439   -3.2745437 
C     1.7105724    1.9897111   -3.7962841 
H     0.1894931    3.5249466   -4.1160964 
H    -0.2666230    2.2893119   -2.9208871 
C     2.3321575    1.1454380   -2.6846033 
O     2.2952064    6.4237197    0.8042902 
H     2.0338912    6.1508181    1.7450296 
O     1.5512321    0.7521964   -1.5995954 
N     1.1931239    1.1321920   -4.8793365 
H     2.5301920    2.6228977   -4.2038552 
H     0.4353006    0.5060852   -4.5104686 
H     0.7819185    1.7160529   -5.6459321 
N     3.7216144    0.7718564   -2.7088531 
C     4.4994681    1.5387034   -1.7086463 
H     4.1053469    0.9355716   -3.6682949 
C     4.5843292    3.0321120   -2.0305839 
O     4.5371112    3.4690099   -3.3486971 
O     4.7228618    3.9872793   -1.0287289 
H     4.7804651    3.5714989   -0.1116854 
C     5.9125911    0.9327205   -1.6082426 
H     4.0084544    1.4450707   -0.7112666 
C     5.8714517   -0.4763788   -1.0610053 
H     6.5591024    1.5606052   -0.9562254 
H     6.3909802    0.9327584   -2.6134462 
C     5.7982687   -0.8355216    0.2299054 
C     5.7708635   -0.0649365    1.3476323 
C     5.6871392   -0.6848243    2.5599157 
C     5.6303850   -2.0493130    2.6354571 
C     5.6562815   -2.8021735    1.4988808 
C     5.7414470   -2.1656172    0.3118567 
H     5.8116082    1.0180222    1.2875453 
H     5.6633635   -0.0912301    3.4703787 
H     5.5615433   -2.5362843    3.6047504 
H     5.6075748   -3.8848523    1.5402774 
N     5.7710585   -2.7563428   -0.9798433 
C     5.8461165   -1.5908021   -1.8121463 
H     5.7496387   -3.7660909   -1.2493189 
H     5.8505870   -1.6092241   -2.8991976 
