48
 energy: -9.299684299750 gnorm: 0.000363241497 xtb: 6.6.0 (2ccbbd7)
C           -3.34033845690061       -0.65816606315687       -1.29666221258219
C           -1.99983426999608       -0.90374973642772       -1.47922375682077
C           -3.86585173838300       -0.50280832169177       -0.01336006035479
C           -2.99643802440039       -0.59910323886171        1.07264185490439
C           -1.65787804412936       -0.84493719729022        0.88195981011477
C           -1.14087987414976       -1.00830527013189       -0.39465976714758
H           -1.60351600622361       -1.01745702297878       -2.47364725349083
H           -3.40062599711352       -0.47613483611797        2.06152561271815
H           -0.99590206418922       -0.91346820774329        1.72812973566528
H           -3.99883195410331       -0.58370136705575       -2.14338960768186
C            0.32253018839966       -1.24749199248144       -0.59359528144583
C            1.15653609546770        0.03107412325525       -0.50491567353577
H            0.49527661360163       -1.71524867921991       -1.56673699707529
H            0.68382315594819       -1.97081700773390        0.14485789094036
C            2.63881538047143       -0.26379135851823       -0.57403693937872
O           -5.20806895437530       -0.25781852417796        0.20577665067704
H           -5.68796739834005       -0.22247060253271       -0.64968159789986
O            3.03547155304521       -1.37320796939074       -0.87150988452058
N            0.84080002179406        0.98073734456250       -1.56960230798882
H            0.95335159691929        0.52547916311313        0.45730617022949
H            1.11140145586597        0.57546076781158       -2.47004982292611
H           -0.15550020150248        1.14677030518982       -1.60160545209054
N            3.46319826146161        0.83580581485184       -0.37107543641795
C            4.58798879608643        1.15723819731530       -1.25989439699916
H            3.04488330996714        1.69126317947602       -0.00312954743117
C            4.42661084302846        2.58093389083842       -1.74559722255188
O            5.43488682181622        3.19963788924893       -2.01138068109788
O            3.16109100921216        3.05469436803918       -1.89369605136770
H            2.45802611362664        2.35476714403354       -1.76485566597888
C            4.76730210359846        0.20401158186686       -2.45129290665761
H            5.49177013133804        1.12309065788896       -0.63263778738425
C            3.64639582909393        0.23341116144878       -3.44174059713128
H            4.87261671401731       -0.81737166268326       -2.06991939066183
H            5.70061169490854        0.44204859729542       -2.97190983906670
C            3.32969226215590        1.27322716364588       -4.36780240736323
C            3.95806691577574        2.48580163005197       -4.70465499223939
C            3.38822570154420        3.28036293314594       -5.65950182241089
C            2.19670643274002        2.90479169915706       -6.29992767315885
C            1.55928510035546        1.73723478708980       -5.98104280215058
C            2.12437281090831        0.91079856776607       -5.00152317882212
H            4.83731494429349        2.80029987323283       -4.16932977795393
H            3.85225686750950        4.21900041211855       -5.91389787473799
H            1.77433371671023        3.55392781200750       -7.04900628566419
H            0.64261247616507        1.44567432938130       -6.46136866693146
N            1.71363922101909       -0.29724032550997       -4.46424211863286
C            2.66690512889971       -0.72080548454783       -3.57157202644298
H            0.92550165932909       -0.84603961419970       -4.81503764378419
H            2.60971195034464       -1.62808842381714       -2.99134639567765
