48
 energy: -9.060725298329 gnorm: 0.000922487781 xtb: 6.6.0 (2ccbbd7)
C            1.77283065594514       -5.53963622243244       -4.02638518139071
C            1.44760704888530       -4.23527356997356       -3.73747276781635
C            3.10628488214700       -5.92690875820637       -4.16059920168414
C            4.09450630871626       -4.95793549436663       -3.99090487945901
C            3.76161926494054       -3.65626861379436       -3.70189275050189
C            2.43474431634226       -3.27378113246072       -3.57590922327692
H            0.41538162651404       -3.94840583445148       -3.63435722090185
H            5.12220172975244       -5.25688726547355       -4.09144953022773
H            4.53386263517328       -2.91853496962815       -3.56866249538101
H            1.00023193181334       -6.27657741699584       -4.15264793786154
C            2.08558387253391       -1.86085074942391       -3.22896050483445
C            2.32506407218016       -1.53092199513395       -1.75287502341668
H            1.03465858001149       -1.66493699694557       -3.46172071477486
H            2.65364487352947       -1.17785968085189       -3.86751532834264
C            2.09321367903694       -0.05741268386884       -1.49216522666357
O            3.46637880074645       -7.22875460139996       -4.45319919473980
H            2.66479701408167       -7.78673618660984       -4.54809848830436
O            1.03681544819808        0.42158712223961       -1.85623360881538
N            1.45730927980375       -2.30303339993145       -0.87849944805605
H            3.36377207492796       -1.77228119563937       -1.48197154231634
H            0.51302790093643       -1.95270849721632       -0.97344398793694
H            1.45834203067259       -3.27925698803223       -1.14642479666742
N            3.08466141520550        0.70395368352149       -0.81999584482733
C            4.08973352548225        1.49704876801642       -1.57677736663843
H            2.72226373861999        1.35990724746840       -0.12515653898420
C            3.55537623990667        2.87481509966998       -1.85028047147797
O            4.41491828606271        3.93435388694241       -1.83521864353485
O            2.21436565809801        3.02094782669661       -2.11880326778817
H            1.75001051085843        2.14673911390684       -2.04440306898327
C            4.54643197371671        0.79242756065073       -2.86836340170615
H            4.96292004049593        1.59498451192567       -0.91466491029138
C            5.98989933190366        0.96321778724455       -3.22382550290112
H            3.91720496527210        1.11904589572315       -3.70213074237142
H            4.36553561422310       -0.27970756799147       -2.75821052037306
C            6.82011549622806        2.11302387098053       -3.06007119569352
C            6.59743698988553        3.39157382151074       -2.53631462148240
C            7.62066333910256        4.29083696911068       -2.50696718517543
C            8.89478848094262        3.95263684414613       -2.99177416694361
C            9.14398723731796        2.71186597517483       -3.51164417501111
C            8.09929239851723        1.77895742294513       -3.54980473047471
H            5.46612794515442        3.67478543229237       -2.15108927812533
H            7.44536673345565        5.27673860031722       -2.10978836431111
H            9.68522083160835        4.68384160197988       -2.95476688562926
H           10.11471870483332        2.44156158912378       -3.88674563984212
N            8.04174785833196        0.47430800779605       -4.00369776141422
C            6.77055175935007       -0.00493011735968       -3.80763347518349
H            8.82533105297817       -0.03429134765620       -4.41723621490043
H            6.44172671348095       -0.99721254885280       -4.07085330360876
