48
 energy: -9.289101922794 gnorm: 0.000748937254 xtb: 6.6.0 (2ccbbd7)
C            1.06200600923234        4.65431511550270        1.64652470403829
C            0.43275297082671        3.43912511040577        1.51150796028601
C            2.40723889575909        4.72101460975112        2.01202617951930
C            3.09478220954396        3.52662623496250        2.22411012287387
C            2.46002590966978        2.31634874087248        2.08299401960894
C            1.11762605480452        2.25398605850566        1.73594917375861
H           -0.60243789867236        3.39777869036394        1.21876355507940
H            4.13552713125363        3.57740731388632        2.49022275007340
H            3.00859376993162        1.39996705078127        2.21969841412758
H            0.52245899612068        5.56750527273178        1.47001567889730
C            0.45298271334368        0.92929472920512        1.51709471774474
C            0.44479892173359        0.51238135139247        0.04299123320089
H           -0.56797686750716        0.95338693165327        1.91061060758575
H            0.97936648168579        0.16239475550688        2.09286330481065
C            1.84462460388692        0.58123598161226       -0.51584804347183
O            3.06795189291023        5.92448803459585        2.16756734177766
H            2.47543243625448        6.66785273357187        1.92414276178663
O            2.59880754362263       -0.33340154746051       -0.26306942984852
N           -0.05609149488222       -0.83987377837618       -0.15062639721774
H           -0.19446584663045        1.20098319619170       -0.52977597259462
H            0.70081510075928       -1.47728581670553        0.07699394160833
H           -0.83623771890890       -1.03352367148831        0.46557610918556
N            2.18445050682386        1.69930588409170       -1.24597567414797
C            3.56796825431598        2.02731665337458       -1.57684953504361
H            1.56378019905704        2.50959867888249       -1.25258617057692
C            3.57264894323137        3.14834353697600       -2.59638018719173
O            4.35848510271246        4.05954918118162       -2.45047682959170
O            2.69294624605731        3.01898658543685       -3.61758198373922
H            2.15508382815849        2.20029868345378       -3.50515864448701
C            4.34977534393783        0.81053213110283       -2.07603714027683
H            4.04188716203356        2.40154135449636       -0.65828848241718
C            5.82401573280548        1.00521341853194       -2.21395339852347
H            3.93350402083216        0.48803624491301       -3.03433296009292
H            4.17859120891139       -0.01463552885471       -1.37866019000433
C            6.80164955544259       -0.03064933872866       -2.13969193655395
C            6.71113307841371       -1.41109254936314       -1.89195676570108
C            7.86028475986448       -2.15227086694188       -1.88747344781446
C            9.11038403898510       -1.55724490748043       -2.12405640884677
C            9.22243010249583       -0.21530762464790       -2.36530486304079
C            8.05783527250988        0.56252168432445       -2.37284130207313
H            5.75209266151274       -1.86179199929192       -1.70788133619264
H            7.80810241200357       -3.21177818233064       -1.69913322800979
H            9.99636324137011       -2.17025938860055       -2.11433249941986
H           10.17515885765643        0.24869758308838       -2.54733002858843
N            7.84555634723084        1.91308732861031       -2.58479600780848
C            6.50134716002009        2.16677607134483       -2.49142329292233
H            8.57669452395876        2.59581826439672       -2.79267999133695
H            6.05069960120401        3.13872249570889       -2.60615693960768
