48
Energy =
C    -3.3758004    2.4407010    0.8292558 
C    -2.0531953    2.2603603    0.5838376 
C    -4.2872977    2.2501618   -0.1619441 
C    -3.8679502    1.8792718   -1.3930193 
C    -2.5468045    1.6975254   -1.6439260 
C    -1.6300809    1.8912611   -0.6566559 
H    -1.3372952    2.4121425    1.3871925 
H    -4.6043420    1.7286475   -2.1746407 
H    -2.2286768    1.3964153   -2.6388114 
H    -3.7024974    2.7363523    1.8203360 
C    -0.1593851    1.6694235   -0.9319864 
C     0.2126497    0.1667945   -0.9188500 
H     0.4630048    2.2298911   -0.2002194 
H     0.0848877    2.1008308   -1.9293119 
C     1.6202694   -0.0632329   -1.4526469 
O    -5.6573820    2.4265413    0.0578596 
H    -5.8895954    2.7074268    1.0041653 
O     1.7416658   -0.7013724   -2.6821713 
N     0.0487144   -0.4076379    0.4283652 
H    -0.4575743   -0.3758761   -1.6273396 
H     0.5076212    0.2019639    1.1441225 
H    -0.9703571   -0.4512862    0.6646018 
N     2.7737714    0.4123437   -0.7084543 
C     4.2102154    0.3045210   -1.1177850 
H     2.5234314    1.0283824    0.0914338 
C     5.0311076    1.5391577   -0.6750054 
O     6.3732292    1.6456116   -1.0127159 
O     4.5160812    2.5285018    0.1606025 
H     4.1308539    2.1170889    0.9954736 
C     4.3810355   -0.0209942   -2.6300320 
H     4.6519004   -0.5428014   -0.5495091 
C     5.8127166   -0.0614682   -3.1258915 
H     3.7650239    0.6748359   -3.2370736 
H     3.9874652   -1.0426303   -2.8128160 
C     6.4472085    0.8688585   -3.8602664 
C     6.0076021    2.0692933   -4.3205321 
C     6.8669676    2.8386067   -5.0489193 
C     8.1383631    2.4038920   -5.3023507 
C     8.5597082    1.1982055   -4.8261039 
C     7.6915823    0.4548783   -4.1083752 
H     5.0061749    2.4283625   -4.1071138 
H     6.5420030    3.8068742   -5.4223495 
H     8.8188259    3.0254026   -5.8790939 
H     9.5672737    0.8419225   -5.0115264 
N     7.9328808   -0.8160641   -3.5213601 
C     6.6680154   -1.0753201   -2.8995259 
H     8.7959474   -1.4056752   -3.5474431 
H     6.4377953   -1.9709784   -2.3271752 
