48
Energy =
C     3.6791480    6.6824700   -1.1733769 
C     3.2810997    5.4400574   -0.8348200 
C     3.8346917    7.0574680   -2.4645584 
C     3.5910034    6.2081880   -3.4788272 
C     3.1870823    4.9418083   -3.2731051 
C     3.0080591    4.3546242   -1.8664509 
H     3.1845628    5.1864335    0.2163982 
H     3.7193293    6.5680063   -4.4935609 
H     2.9685752    4.3275832   -4.1402649 
H     3.8788949    7.3993873   -0.3839472 
C     1.5348589    3.8790911   -1.6974116 
C     1.1760617    2.5428317   -2.4231051 
H     0.8587719    4.6876265   -2.0524340 
H     1.3045643    3.7411281   -0.6175076 
C     1.8007644    1.3201154   -1.7515132 
O     4.2439660    8.3577023   -2.7871390 
H     4.4334176    8.9507958   -1.9864102 
O     1.6870931    1.1518819   -0.3728005 
N    -0.2868179    2.3921519   -2.4876692 
H     1.5736444    2.5582173   -3.4628387 
H    -0.6767260    2.3652360   -1.5141687 
H    -0.7117975    3.2099619   -2.9832676 
N     2.7776308    0.5301989   -2.4540431 
C     4.1545179    0.9691760   -2.1194205 
H     2.6333601   -0.4436830   -2.1009620 
C     4.3125693    2.4745299   -2.3804880 
O     4.8506753    2.9055994   -3.5913872 
O     3.8518706    3.2808915   -1.5616607 
H     3.7158716    2.9268094   -0.6702629 
C     5.1491230    0.1182309   -2.9372836 
H     4.3516831    0.7907495   -1.0351028 
C     6.5799419    0.3693077   -2.5141293 
H     5.0229261    0.3419589   -4.0211651 
H     4.9154619   -0.9613942   -2.8160809 
C     7.2137991   -0.1794163   -1.4665092 
C     6.7706915   -1.0888201   -0.5605825 
C     7.6210771   -1.4827968    0.4302495 
C     8.8853531   -0.9661599    0.5017028 
C     9.3068322   -0.0511577   -0.4170273 
C     8.4480126    0.3209473   -1.3891964 
H     5.7654528   -1.4969535   -0.6127502 
H     7.2912090   -2.2100631    1.1682896 
H     9.5563814   -1.2840904    1.2956483 
H    10.3045821    0.3720269   -0.3714613 
N     8.6800882    1.2643888   -2.4254981 
C     7.4154434    1.2421992   -3.1043478 
H     9.5398432    1.8209449   -2.6371095 
H     7.1546118    1.8724565   -3.9545382 
