48
Energy =
C     0.8293266   -2.4105172    1.5572454 
C     1.6020698   -1.7105764    2.4257314 
C    -0.3646708   -1.9063647    1.1458879 
C    -0.7777179   -0.7044782    1.6072698 
C    -0.0097926   -0.0009654    2.4759255 
C     1.1853684   -0.5012636    2.8945088 
H     2.5617710   -2.1195873    2.7350405 
H    -1.7293844   -0.3104035    1.2687088 
H    -0.3530735    0.9682196    2.8271853 
H     1.1719004   -3.3718618    1.1892272 
C     2.0647471    0.2976726    3.8357345 
C     2.9462923    1.3256168    3.0935664 
H     2.7179176   -0.3896801    4.4203270 
H     1.4312857    0.8227003    4.5839288 
C     3.8544744    0.6504021    2.0770742 
O    -1.1823949   -2.5988524    0.2479572 
H    -0.8095113   -3.4966474   -0.0418984 
O     4.8618778   -0.1968022    2.5249949 
N     2.0894590    2.3592908    2.4857434 
H     3.6358250    1.7980732    3.8330312 
H     1.6179168    2.9040324    3.2454092 
H     2.6901956    3.0534904    1.9763213 
N     3.5348633    0.6657319    0.6813564 
C     4.5748555    1.1775838   -0.2272304 
H     2.6221614    0.2646496    0.3706913 
C     4.5199995    2.6985534   -0.3249675 
O     5.6725759    3.4399403   -0.1033572 
O     3.3456945    3.3733527   -0.6630226 
H     2.5632412    2.7392461   -0.7282041 
C     4.4084753    0.5059271   -1.6040571 
H     5.5858712    0.9169178    0.1698565 
C     5.5502186    0.8548531   -2.5327001 
H     3.4426437    0.8096533   -2.0652197 
H     4.3612922   -0.5974109   -1.4728837 
C     6.7449847    0.2473386   -2.6016363 
C     7.2222209   -0.8165902   -1.9056974 
C     8.4949350   -1.2373160   -2.1581277 
C     9.2639208   -0.5933594   -3.0879763 
C     8.7653590    0.4772183   -3.7695059 
C     7.5023952    0.8722389   -3.5044677 
H     6.6181398   -1.3209802   -1.1572307 
H     8.9021189   -2.0847417   -1.6118571 
H    10.2792001   -0.9313932   -3.2793822 
H     9.3649022    1.0056891   -4.5027237 
N     6.8061247    1.9683728   -4.0808276 
C     5.5529388    1.8940066   -3.3861065 
H     7.1207815    2.6389302   -4.8190531 
H     4.7406949    2.6126648   -3.4938657 
