48
Energy =
C     2.2900856    6.1662478    2.7092044 
C     2.1485114    4.8419031    2.4496269 
C     3.4048371    6.8284557    2.2987123 
C     4.3713708    6.1592002    1.6297737 
C     4.2351638    4.8353878    1.3673506 
C     3.1224274    4.1669058    1.7785902 
H     1.2491860    4.3286846    2.7798189 
H     5.2563460    6.6959321    1.3055010 
H     5.0249201    4.3170132    0.8272879 
H     1.5087363    6.6945320    3.2445394 
C     2.9653247    2.6944928    1.4692399 
C     2.5308263    2.4540068   -0.0001251 
H     2.2359548    2.2191944    2.1625138 
H     3.9437911    2.2007100    1.6671411 
C     2.6861946    0.9886544   -0.4012504 
O     3.5801065    8.1933620    2.5500314 
H     2.8133383    8.6216546    3.0567671 
O     1.5769754    0.2457066   -0.7895671 
N     1.1497229    2.9284974   -0.2092204 
H     3.2039811    3.0115764   -0.6885904 
H     0.4957459    2.4452957    0.4521779 
H     1.0868432    3.9586597   -0.0339182 
N     3.9106635    0.2800340   -0.1501899 
C     5.0618575    0.4741779   -1.0526667 
H     3.9683289   -0.3151395    0.7060355 
C     5.7388229    1.8254424   -0.8243592 
O     5.4329883    2.9104570   -1.6373846 
O     6.5808273    2.0366374    0.2662256 
H     6.7161766    1.1930911    0.8042607 
C     4.6360625    0.2259206   -2.5190210 
H     5.8188638   -0.2994596   -0.7931471 
C     5.8308586    0.0289830   -3.4296143 
H     3.9871654    1.0499504   -2.8843459 
H     4.0126871   -0.6954772   -2.5608759 
C     6.3400266    0.9000856   -4.3186330 
C     5.9312624    2.1515273   -4.6545934 
C     6.6352734    2.8322656   -5.6039099 
C     7.7233616    2.2592288   -6.2009115 
C     8.1146748    1.0014090   -5.8516728 
C     7.4034644    0.3485648   -4.9085405 
H     5.0710823    2.6158289   -4.1839351 
H     6.3306346    3.8380468   -5.8835164 
H     8.2799786    2.8096511   -6.9552869 
H     8.9758705    0.5322077   -6.3150186 
N     7.6433198   -0.9590613   -4.4090742 
C     6.5815129   -1.0869875   -3.4564032 
H     8.3907263   -1.6429525   -4.6678834 
H     6.4137884   -1.9671225   -2.8405573 
