48
Energy =
C     0.8978866   -5.7153164   -4.0087972 
C     1.2717062   -4.7054583   -4.8385368 
C     0.7885306   -5.4977477   -2.6680909 
C     1.0534445   -4.2700686   -2.1664188 
C     1.4256611   -3.2675701   -2.9979681 
C     1.5280545   -3.4679301   -4.3349256 
H     1.3623341   -4.8984632   -5.9040150 
H     0.9658029   -4.0989844   -1.0987241 
H     1.6789568   -2.1645744   -2.6607659 
H     0.6909737   -6.6980492   -4.4185759 
C     1.9999919   -2.3308510   -5.2333989 
C     1.4373979   -0.9347048   -4.8173885 
H     1.6994313   -2.5502442   -6.2810807 
H     3.1167946   -2.3045529   -5.2119025 
C     2.0466836   -0.4007871   -3.5048901 
O     0.4118965   -6.5160514   -1.7873993 
H     0.2191277   -7.4035733   -2.2384159 
O     1.9118494   -1.1385886   -2.3284770 
N     1.6112442    0.0169981   -5.9255651 
H     0.3426118   -1.0248222   -4.6036756 
H     2.6227208    0.2648161   -6.0622037 
H     1.2373490   -0.3669768   -6.8239757 
N     2.5054724    0.9486402   -3.4194365 
C     3.9825165    1.1396453   -3.3075358 
H     2.0393453    1.3424075   -2.5697791 
C     4.4080467    2.2796067   -4.2256405 
O     4.5272297    3.5617861   -3.6948034 
O     4.6603310    2.0914647   -5.5928567 
H     4.6347555    1.1239078   -5.8850526 
C     4.8784733   -0.1315439   -3.5328055 
H     4.2037186    1.5278242   -2.2866185 
C     5.2819111   -0.7864316   -2.2283640 
H     5.8287039    0.1568815   -4.0415470 
H     4.4165836   -0.8711176   -4.2196068 
C     6.1660515   -0.3095810   -1.3371972 
C     6.8989514    0.8336004   -1.3657013 
C     7.7365054    1.0924449   -0.3209684 
C     7.8302551    0.2144700    0.7235031 
C     7.0868695   -0.9287524    0.7285530 
C     6.2652962   -1.1618266   -0.3163769 
H     6.8273952    1.5325836   -2.1945805 
H     8.3318680    2.0026065   -0.3194749 
H     8.4998902    0.4291438    1.5526250 
H     7.1486202   -1.6362333    1.5479950 
N     5.4149319   -2.2825635   -0.5074158 
C     4.8164088   -1.9596690   -1.7709041 
H     5.2739967   -3.1203352    0.1016079 
H     4.0895923   -2.5790594   -2.2845198 
