48
Energy =
C     2.2371732   -1.2415553    4.8763031 
C     2.1321306   -1.5716145    3.5641610 
C     1.4725605   -0.2435030    5.3933852 
C     0.6053692    0.4158845    4.5931454 
C     0.4942078    0.0878055    3.2815027 
C     1.2652261   -0.9024332    2.7522500 
H     2.7462282   -2.3764465    3.1703227 
H     0.0005757    1.2106221    5.0156411 
H    -0.2146451    0.6272704    2.6595988 
H     2.9326241   -1.7796603    5.5114109 
C     1.1449917   -1.2785977    1.2851980 
C     2.1484101   -0.5656034    0.3360729 
H     0.1074987   -1.0838876    0.9327825 
H     1.2866814   -2.3773807    1.1862939 
C     1.7754754    0.8742119    0.0027498 
O     1.5550464    0.1196046    6.7415609 
H     2.2349940   -0.4144172    7.2713774 
O     1.2449831    1.7273862    0.9590814 
N     3.5340830   -0.6637103    0.8227531 
H     2.0923146   -1.1029692   -0.6365413 
H     3.6370818   -0.0999106    1.7016026 
H     3.7609604   -1.6591203    1.0511853 
N     2.0480784    1.4115797   -1.2950992 
C     3.4578304    1.7197766   -1.6132402 
H     1.2716909    1.4719220   -1.9919917 
C     3.6404965    3.1553475   -2.1044733 
O     4.8176900    3.5055187   -2.7531081 
O     2.7281750    4.1694488   -1.8149598 
H     2.0137898    3.8583192   -1.1719147 
C     4.0178514    0.6591981   -2.5960308 
H     4.0828740    1.6835634   -0.6890423 
C     3.1975008    0.5065027   -3.8638282 
H     4.0496588   -0.3217196   -2.0734753 
H     5.0756911    0.8937335   -2.8457518 
C     3.4103333    1.0891336   -5.0577282 
C     4.4016454    1.9247161   -5.4628478 
C     4.3872349    2.3762127   -6.7500079 
C     3.3986405    1.9842226   -7.6085665 
C     2.4197274    1.1359092   -7.1859156 
C     2.4532061    0.7063051   -5.9070016 
H     5.1968110    2.2317224   -4.7929662 
H     5.1666561    3.0526928   -7.0936314 
H     3.3939719    2.3491394   -8.6327712 
H     1.6308092    0.8107184   -7.8557085 
N     1.5424203   -0.1854459   -5.2817754 
C     2.0998293   -0.2655984   -3.9648364 
H     0.6967664   -0.6550714   -5.6800041 
H     1.6841662   -0.8658415   -3.1598600 
