48
 energy: -9.282161467485 gnorm: 0.000546273466 xtb: 6.6.0 (2ccbbd7)
C           -2.28585372211229        0.71400995759902        1.05756017166326
C           -1.11394898346708        1.37530711335934        0.77903552237965
C           -2.63313962339357        0.41522580355376        2.37538763850974
C           -1.76150383652370        0.80467266868736        3.39204286036572
C           -0.59150222011482        1.46548149342615        3.10270234133160
C           -0.25022146343132        1.76493443720227        1.79136833131303
H           -0.84150050554725        1.59086014667857       -0.23949368954362
H           -2.02968619450554        0.57524880424647        4.40780974829354
H            0.07113110491479        1.75838522133567        3.89880002828453
H           -2.94432948318045        0.41727634719921        0.26102631301366
C            1.02866536706071        2.48236835083833        1.47601177587773
C            2.06835205934585        1.60754957639546        0.75060945641569
H            1.46083072933699        2.87230543456948        2.40277641768958
H            0.81293983302027        3.35873068874003        0.85660014618195
C            1.82877142615182        1.57674115736836       -0.75045335976219
O           -3.80126529986295       -0.25025192618324        2.69467421095958
H           -4.30832947477763       -0.45054894070644        1.87866251031553
O            0.83687283724843        2.10546769006141       -1.21813662931007
N            3.42793602294431        2.03952748786747        1.05124906865459
H            1.96042671407469        0.57609439143920        1.11985978800115
H            3.57435961982744        2.96136883239912        0.66357232189407
H            3.57364767796342        2.10890812238798        2.04954426630489
N            2.75648280590914        0.97914440379541       -1.60742908031088
C            4.18575011575522        1.31562743473549       -1.56857347853179
H            2.47209218234505        0.90463265007918       -2.58112913316593
C            4.42358912458874        2.75710240908249       -1.98679728077619
O            5.58011119732590        3.10857473052552       -2.08280542447079
O            3.35406344491047        3.56171648419563       -2.21896588282786
H            2.49596260456643        3.11016418222343       -2.01835810929422
C            5.00793091006564        0.37661069090574       -2.44569189435247
H            4.53235734321074        1.21787341274332       -0.53542229064769
C            4.85905854091726       -1.08276113904844       -2.15536115222297
H            6.06489436286586        0.65455606011681       -2.37306682177153
H            4.73064361665294        0.55744548468046       -3.48889560393280
C            4.47286902031063       -1.74483206450850       -0.94469632918140
C            4.05024504393876       -1.30415078583037        0.32356635430780
C            3.75109583858486       -2.22948038124211        1.28404854270969
C            3.85605006224480       -3.60492068429700        1.02933032466255
C            4.25825349425021       -4.06408365702649       -0.19334076573369
C            4.56790100593709       -3.13069428601820       -1.19003489581772
H            3.93740847853505       -0.25694717102832        0.53049560719077
H            3.42135678255234       -1.89859065236733        2.25499678465315
H            3.61149709221633       -4.30751062179375        1.80872530238687
H            4.33915458926779       -5.11568947920915       -0.40254059611876
N            4.99453335128403       -3.30043931494665       -2.49286249764106
C            5.17115859823608       -2.06643243902659       -3.06175220533142
H            5.15682851328966       -4.20446510743815       -2.94026956732940
H            5.51612384988009       -1.89886778847998       -4.06949662754625
