48
 energy: -9.363113925504 gnorm: 0.000691769688 xtb: 6.6.0 (2ccbbd7)
C            3.30410135330859        5.88078977624455        3.20969800527484
C            3.09388089031593        4.89674547680262        2.27324746913069
C            4.57441185655583        6.08799194421940        3.74879226589320
C            5.61903354048686        5.27426454913026        3.31065586153382
C            5.40119425445419        4.29216383290655        2.37450908268174
C            4.13686390400730        4.09193519369398        1.84067476235223
H            2.10858303581922        4.74098007786417        1.86764955490225
H            6.59856134952097        5.43636691783899        3.72401857387089
H            6.21653121314259        3.67145819063265        2.04491107346500
H            2.48828134837148        6.49964767877473        3.53812341202431
C            3.88486636699659        3.00842856337221        0.84527038767244
C            3.21679509308712        1.77097520586730        1.46707261601232
H            4.82698735908215        2.73226001130522        0.36743993597753
H            3.17861087673003        3.46150648897102       -0.03114353319617
C            2.24588843776951        1.08838573778378        0.52772301418726
O            4.81903161491280        7.06348979647527        4.69594831639715
H            3.99316395535048        7.55485151995512        4.89497862901054
O            1.15646417518158        0.77111639934532        0.96492177525673
N            4.17227263049098        0.82319633258313        2.02597410835306
H            2.60012350463423        2.11678727758842        2.31365352102022
H            4.64913478889545        0.31173749081390        1.29636505250709
H            4.86976307961705        1.30635896268580        2.57821557603851
N            2.57230979723721        0.83668029861203       -0.78715305270656
C            3.88866923269667        1.02746888464946       -1.39883938148342
H            1.84590162177930        0.51517424107035       -1.42369422875529
C            4.07852703467372        2.46567427499278       -1.81726906894314
O            4.91723666157003        2.72672062289013       -2.65133099162380
O            3.26964922714951        3.46878185974619       -1.15098537253773
H            2.35829672795860        3.10340537956528       -0.69240565852142
C            4.09910401096793        0.08126486669258       -2.58887093218550
H            4.65477288535965        0.79449921996582       -0.65075227930055
C            4.51554570672829       -1.31177279758495       -2.23180299345947
H            4.87352149600658        0.51836835004124       -3.22982105744527
H            3.19274537057781        0.05493645969418       -3.20022588450286
C            4.00410989870890       -2.18279808647576       -1.21732648727095
C            3.02313037878102       -2.04945533861069       -0.21854515266453
C            2.76461299458219       -3.10155387987980        0.61294492141428
C            3.46112100850106       -4.31280441900144        0.48590510830944
C            4.42267207698711       -4.47411489178045       -0.47277789540959
C            4.70093981150265       -3.40300661156887       -1.33156921928281
H            2.49625778743216       -1.12359569849278       -0.10591820616930
H            2.01577657485694       -2.99870099647342        1.38102012890404
H            3.23414179725500       -5.12577140743192        1.15559160558238
H            4.96343363685392       -5.39734932240646       -0.57934193590578
N            5.59926150291520       -3.27638281013187       -2.37378355028652
C            5.47731928000529       -2.02057218772586       -2.91020375871499
H            6.23579131962248       -4.01126507554558       -2.68755849131354
H            6.04906241064680       -1.65277921591930       -3.74715676844901
