48
Energy =
C     0.7449445   -0.1049484    0.2517621 
C     0.5251215    0.3780026   -0.9961313 
C     0.2651935    0.5602134    1.3356540 
C    -0.4279451    1.7086777    1.1622136 
C    -0.6472160    2.1991071   -0.0844319 
C    -0.1780027    1.5312335   -1.1740843 
H     0.9308881   -0.1551968   -1.8508449 
H    -0.7992579    2.2331876    2.0360528 
H    -1.1961141    3.1298043   -0.2009301 
H     1.3114061   -1.0201613    0.3795130 
C    -0.3893867    2.0940132   -2.5649907 
C     0.8068477    2.9670421   -3.0104825 
H    -1.3201802    2.7030191   -2.5825174 
H    -0.5550392    1.2665248   -3.2891207 
C     2.0779285    2.1574751   -3.1582892 
O     0.4695528    0.0875157    2.6361343 
H     1.0199023   -0.7628319    2.6842509 
O     3.0444253    2.2344615   -2.1623647 
N     0.4845659    3.6721675   -4.2612369 
H     1.0332993    3.7172455   -2.2133025 
H     0.1913675    2.9852082   -4.9964816 
H    -0.3227826    4.3208253   -4.1044873 
N     2.2310613    1.1989342   -4.2172913 
C     3.5870156    1.0136536   -4.7687067 
H     1.4015898    0.6939918   -4.6007611 
C     3.7215760    1.6698804   -6.1423136 
O     4.3138102    0.9750718   -7.1912559 
O     3.3223151    2.9864438   -6.3682211 
H     2.9101037    3.3931321   -5.5406701 
C     3.9139814   -0.4990131   -4.8083819 
H     4.3492391    1.5185949   -4.1338588 
C     3.6483209   -1.1848645   -3.4843025 
H     4.9801757   -0.6493337   -5.0898747 
H     3.3065553   -0.9854413   -5.6046150 
C     4.3531112   -1.0588919   -2.3487913 
C     5.4704179   -0.3320731   -2.0917502 
C     5.9944865   -0.3720851   -0.8331239 
C     5.4043060   -1.1334975    0.1373898 
C     4.2866434   -1.8607511   -0.1453004 
C     3.7851930   -1.8019579   -1.3969168 
H     5.9416800    0.2720349   -2.8596732 
H     6.8840318    0.2078886   -0.6000543 
H     5.8277640   -1.1579243    1.1381564 
H     3.8087961   -2.4719776    0.6120702 
N     2.6393446   -2.4791776   -1.8946176 
C     2.6192379   -2.0192863   -3.2518501 
H     1.9807798   -3.1231149   -1.4003410 
H     1.8689396   -2.3048988   -3.9848295 
