48
 energy: -9.290561771398 gnorm: 0.000718436974 xtb: 6.6.0 (2ccbbd7)
C            0.96929350652943        4.53674374050828        2.01359040649691
C            0.58560289166996        3.21819323349713        2.08525232760217
C            2.31801146138727        4.88004801720612        1.91373481886832
C            3.25999864498083        3.85297154089936        1.87302990100478
C            2.86805477678302        2.53820243334077        1.94141012657861
C            1.52762364151217        2.20067206021868        2.06407691602052
H           -0.45801694468638        2.96402373124008        2.15653106975190
H            4.29944211854018        4.11660233121740        1.78946172838077
H            3.60193527382226        1.75182631454684        1.88896178716208
H            0.23099108930607        5.31810786152466        2.03516676902682
C            1.10983456690443        0.76167558187732        2.09931762059266
C            0.88513335800083        0.17962102351475        0.70086349329626
H            0.20662069451143        0.64804913254770        2.70674246071094
H            1.88507562400274        0.17477793308891        2.60078593593595
C            2.11710152207238        0.39525841964201       -0.13843381653177
O            2.73907110592658        6.19459726139617        1.85176807069254
H            1.96437197076495        6.79680068694343        1.84915274993737
O            3.05409110442701       -0.36120948521917        0.00655273052277
N            0.59584999563563       -1.24663932700136        0.72782555739939
H            0.03866225807152        0.69454844645400        0.22219655144016
H            1.48103315835297       -1.73051357424366        0.84052420893555
H           -0.00243273570424       -1.48375743545069        1.50985430233845
N            2.13482467667443        1.46791046601166       -0.99717521187425
C            3.28560132528310        1.71705491081984       -1.84275134658214
H            1.28242686016148        1.97438355707672       -1.24278453596785
C            3.12990804744861        3.07595561931599       -2.49581063682760
O            3.22378415327736        3.17621579413836       -3.69957346696747
O            2.87603188329518        4.09281142272858       -1.63702406364561
H            2.82530313338698        3.76548242001543       -0.70874911671908
C            3.48926986499770        0.57732866141837       -2.85460079676055
H            4.15845547174069        1.74687789050049       -1.17446687522872
C            4.92552862649126        0.26604692169797       -3.11440219856633
H            2.97847562146875        0.82570376405141       -3.79028241873657
H            3.00049851136838       -0.32360017650127       -2.46749918136841
C            5.82389634794485        0.94962581878002       -3.98683292483741
C            5.68426746093540        2.07401289526275       -4.81766866201478
C            6.76026019141339        2.49018190881998       -5.55030766580172
C            7.99147615125646        1.81900105726903       -5.47526077111796
C            8.15813265400934        0.73446712042181       -4.65802370992614
C            7.06632654044070        0.29216378281265       -3.90010702417865
H            4.75560843434022        2.61610904112493       -4.82132926764401
H            6.66742511927549        3.35557716081403       -6.18538513487195
H            8.82131115777266        2.17308846391872       -6.06420773754972
H            9.10064801885121        0.22220952162954       -4.58556647948412
N            6.92924471979837       -0.73778740220950       -2.98596385365156
C            5.64186264450408       -0.73661548707548       -2.50956353196241
H            7.68039344023357       -1.36912133612252       -2.70162615309730
H            5.25455090352229       -1.41400254782028       -1.76517459131490
