48
Energy =
C     1.3949259   -1.6731329    2.3118955 
C     0.8419365   -1.4639636    1.0906991 
C     1.9895890   -2.8618063    2.5979167 
C     2.0261406   -3.8339785    1.6585213 
C     1.4762130   -3.6297009    0.4347555 
C     0.8817381   -2.4406893    0.1417704 
H     0.3763830   -0.5047844    0.8738590 
H     2.5031839   -4.7774278    1.8995572 
H     1.5184808   -4.4217052   -0.3080970 
H     1.3618856   -0.8857344    3.0570913 
C     0.2758940   -2.2029533   -1.2265619 
C     1.2513250   -1.5620222   -2.2407329 
H    -0.6147482   -1.5428368   -1.1241779 
H    -0.1097242   -3.1587167   -1.6425989 
C     1.7748061   -0.2076569   -1.7717898 
O     2.5701980   -3.1096219    3.8459410 
H     2.5058824   -2.3290616    4.4903107 
O     0.8995926    0.8715447   -1.7157268 
N     2.3313042   -2.4940098   -2.6091770 
H     0.6635045   -1.3506595   -3.1617009 
H     2.9054810   -2.7206858   -1.7622805 
H     1.9158146   -3.3930822   -2.9494083 
N     3.0550732   -0.0864013   -1.1369453 
C     4.2217126    0.4604709   -1.8627909 
H     3.1467882   -0.4075220   -0.1472450 
C     4.6225820    1.8388126   -1.3479876 
O     5.9746002    2.1395527   -1.2321104 
O     3.6942063    2.8432875   -1.0811643 
H     2.7465445    2.5108436   -1.1974952 
C     4.1120526    0.3755166   -3.4162649 
H     5.0814049   -0.1913474   -1.5878169 
C     3.4107609    1.5537623   -4.0747338 
H     3.6193026   -0.5795795   -3.7066446 
H     5.1370813    0.2997383   -3.8400224 
C     3.9629288    2.7337256   -4.4141445 
C     5.2380894    3.1784821   -4.2621919 
C     5.5454845    4.4333264   -4.6995424 
C     4.5883848    5.2148593   -5.2840616 
C     3.3178725    4.7459497   -5.4352890 
C     3.0374201    3.5030634   -4.9907740 
H     6.0036680    2.5657868   -3.7954346 
H     6.5560495    4.8163405   -4.5754504 
H     4.8405414    6.2156732   -5.6263009 
H     2.5466089    5.3530048   -5.8974842 
N     1.7907296    2.8300673   -5.0644462 
C     2.1196243    1.5744767   -4.4566250 
H     0.8829759    3.1532260   -5.4714379 
H     1.4159124    0.7545782   -4.3414962 
