48
Energy =
C     7.6440449   -0.1908300    2.0538073 
C     6.3379219   -0.4868283    2.2654922 
C     8.1121370   -0.0297250    0.7902459 
C     7.2715165   -0.1660631   -0.2563710 
C     5.9687640   -0.4581892   -0.0596112 
C     5.4740959   -0.6170476    1.2153813 
H     5.9885501   -0.6179178    3.2880584 
H     7.6391944   -0.0416563   -1.2654248 
H     5.3414212   -0.5469081   -0.9701613 
H     8.3156913   -0.0853653    2.9003378 
C     4.0213675   -0.9864151    1.5529166 
C     2.9287973   -0.8082268    0.4634682 
H     3.7112294   -0.3547016    2.4180287 
H     4.0054802   -2.0358491    1.9186649 
C     2.9426136    0.5827171   -0.1525399 
O     9.4551881    0.2745641    0.5449274 
H    10.0222610    0.3712399    1.3814000 
O     2.8551565    1.6845190    0.6884876 
N     2.9894267   -1.8975615   -0.5265527 
H     1.9363198   -0.8613436    0.9709154 
H     3.9602138   -1.9226956   -0.9297704 
H     2.8517721   -2.8130282   -0.0409261 
N     2.8138414    0.7898764   -1.5681977 
C     3.9762350    1.5563766   -2.0910127 
H     1.9064859    1.2841836   -1.7309679 
C     3.6763171    3.0126244   -2.4570087 
O     4.4698150    3.6351641   -3.4120033 
O     2.7168004    3.7892995   -1.8097268 
H     2.4072498    3.3952736   -0.9335038 
C     4.5689116    0.7770870   -3.2862944 
H     4.7932637    1.6443282   -1.3327947 
C     3.6518027    0.7313649   -4.4977642 
H     4.8087176   -0.2530202   -2.9442674 
H     5.5446203    1.2262069   -3.5729076 
C     2.6706077   -0.1551213   -4.7434009 
C     2.2560544   -1.2230194   -4.0156612 
C     1.2224384   -1.9744339   -4.4919521 
C     0.6258704   -1.6537981   -5.6793919 
C     1.0602735   -0.5799385   -6.3972435 
C     2.0836824    0.1477101   -5.9031200 
H     2.7232465   -1.4822767   -3.0758766 
H     0.8694853   -2.8319770   -3.9234225 
H    -0.1986529   -2.2566390   -6.0529124 
H     0.5985726   -0.3109945   -7.3416221 
N     2.6817299    1.2919474   -6.4904325 
C     3.6867314    1.6095128   -5.5193974 
H     2.4551023    1.7677864   -7.3948027 
H     4.3681434    2.4576889   -5.6026590 
