48
Energy =
C    -1.3545701    0.3918143    1.0825270 
C    -0.2083007   -0.3349629    1.1196628 
C    -2.3284808    0.0858831    0.1843011 
C    -2.1460734   -0.9424014   -0.6750788 
C    -1.0012976   -1.6707935   -0.6438814 
C    -0.0285828   -1.3762582    0.2606544 
H     0.5715541   -0.0732211    1.8337030 
H    -2.9275588   -1.1718093   -1.3913086 
H    -0.8700866   -2.4878437   -1.3486363 
H    -1.4902615    1.2199875    1.7699381 
C     1.2599540   -2.1692790    0.2784139 
C     2.2830442   -1.6213375   -0.7410418 
H     1.0386625   -3.2346642    0.0482050 
H     1.7081642   -2.1601593    1.2978616 
C     2.6663229   -0.1796297   -0.4452622 
O    -3.5222270    0.8113629    0.1227188 
H    -3.5743300    1.5788191    0.7834033 
O     3.0044269    0.1880331    0.8567204 
N     3.4753380   -2.4834455   -0.7645040 
H     1.8181674   -1.6279896   -1.7551610 
H     3.9206626   -2.4924811    0.1857009 
H     3.1988262   -3.4676137   -0.9915564 
N     2.3214691    0.8474040   -1.3839925 
C     3.4125402    1.8443048   -1.5179943 
H     1.4715411    1.3047411   -0.9788589 
C     2.9134425    3.1653890   -2.1008528 
O     1.7160248    3.2160842   -2.8037527 
O     3.6593935    4.3386334   -1.9709880 
H     4.5006161    4.2000666   -1.4305902 
C     4.5720184    1.2570573   -2.3631162 
H     3.8128520    2.1160736   -0.5117588 
C     4.1204138    0.7554169   -3.7210898 
H     5.0351243    0.4137285   -1.8029825 
H     5.3785872    2.0110997   -2.4917885 
C     3.9924280    1.4671928   -4.8543109 
C     4.2443077    2.7798026   -5.0970325 
C     4.0314011    3.2604028   -6.3555597 
C     3.5826405    2.4307469   -7.3452045 
C     3.3449674    1.1146807   -7.0822616 
C     3.5592194    0.6636530   -5.8284215 
H     4.6029067    3.4434916   -4.3172475 
H     4.2155717    4.3104473   -6.5703023 
H     3.4129732    2.8223510   -8.3450340 
H     2.9906125    0.4422531   -7.8559841 
N     3.3843168   -0.6638697   -5.3550730 
C     3.7699891   -0.5164585   -3.9822763 
H     3.0671720   -1.5165889   -5.8703983 
H     3.7922098   -1.3279221   -3.2598907 
