48
Energy =
C     3.2086490   -1.4096403   -9.2991220 
C     3.3528798   -0.7068333   -8.1470442 
C     3.0662215   -2.7615277   -9.2621427 
C     3.0691432   -3.4014384   -8.0708826 
C     3.2130907   -2.7041296   -6.9156779 
C     3.3590542   -1.3510937   -6.9473474 
H     3.4641359    0.3734197   -8.1950426 
H     2.9538256   -4.4798251   -8.0552904 
H     3.2106791   -3.2371709   -5.9681596 
H     3.2070577   -0.8878719  -10.2502270 
C     3.5001589   -0.5724007   -5.6586640 
C     2.1480730   -0.4117266   -4.9231015 
H     3.9533228    0.4275476   -5.8481057 
H     4.2185808   -1.1118251   -5.0009291 
C     2.3282615    0.2687132   -3.5777028 
O     2.9138565   -3.5152327  -10.4301300 
H     2.9272646   -2.9647089  -11.2819257 
O     2.1283145   -0.4585324   -2.4090730 
N     1.1774772    0.3185353   -5.7574259 
H     1.7386080   -1.4229759   -4.6844483 
H     1.6295724    1.1470170   -6.2116478 
H     0.8431260   -0.3067428   -6.5283964 
N     2.7085832    1.6488306   -3.4940935 
C     3.8069214    2.0031588   -2.5747337 
H     2.2667384    2.3401707   -4.1409138 
C     3.9434737    3.5191962   -2.4529241 
O     3.8138971    4.3150892   -3.5867334 
O     4.2639013    4.1351229   -1.2419193 
H     4.4057529    3.4660911   -0.4992903 
C     5.1301685    1.3694043   -3.0559772 
H     3.5560601    1.6110817   -1.5634605 
C     6.2473497    1.5965001   -2.0639037 
H     5.4098483    1.7870247   -4.0487299 
H     5.0042487    0.2752027   -3.1865492 
C     6.4614221    0.9125319   -0.9299393 
C     5.7796588   -0.1387818   -0.4066738 
C     6.1960778   -0.6502256    0.7871428 
C     7.2721415   -0.1072405    1.4339293 
C     7.9372716    0.9523131    0.8911896 
C     7.5081308    1.4381605   -0.2924457 
H     4.9176784   -0.5648044   -0.9140704 
H     5.6658167   -1.4908064    1.2286067 
H     7.5952013   -0.5182081    2.3870827 
H     8.7869870    1.4005208    1.3946735 
N     8.0387936    2.5418000   -1.0124862 
C     7.1575752    2.5819764   -2.1438720 
H     8.8542826    3.1546971   -0.7831145 
H     7.1918309    3.3341715   -2.9308449 
