48
Energy =
C     1.1549135    6.9472689    3.2869114 
C     1.0636045    6.4928001    2.0113853 
C     0.7002019    6.1861853    4.3181621 
C     0.1560427    4.9743296    4.0649286 
C     0.0627154    4.5144267    2.7915532 
C     0.5145576    5.2731629    1.7560457 
H     1.4338011    7.1129804    1.1987837 
H    -0.2038069    4.3777696    4.8960345 
H    -0.3781316    3.5379502    2.6085551 
H     1.5929941    7.9206793    3.4800282 
C     0.4281070    4.7523553    0.3390242 
C     1.5256822    3.7033202    0.0252945 
H     0.4830192    5.5865797   -0.3975272 
H    -0.5775018    4.2962997    0.1890391 
C     1.3158419    3.0472275   -1.3335858 
O     0.7817220    6.6233723    5.6441953 
H     1.1939066    7.5440664    5.7493492 
O     0.2718677    3.4485501   -2.1586171 
N     2.8616216    4.3163973    0.1006685 
H     1.4599968    2.8739146    0.7659615 
H     2.9212783    5.1356580   -0.5518777 
H     3.0476151    4.6668930    1.0691326 
N     2.0329716    1.8591463   -1.6916116 
C     3.4905059    1.9627113   -1.9225110 
H     1.4881328    0.9749827   -1.7915424 
C     3.9050014    3.1787331   -2.7590077 
O     5.0917177    3.8323903   -2.4492941 
O     3.1629095    3.6339628   -3.8472237 
H     2.3382265    3.0667723   -3.9866311 
C     4.0308630    0.6355728   -2.5045300 
H     3.9862283    2.1047503   -0.9359916 
C     3.5508442    0.3609368   -3.9158368 
H     3.7294262   -0.2049436   -1.8411483 
H     5.1432127    0.6490107   -2.4858725 
C     4.1379824    0.7520718   -5.0593661 
C     5.2776387    1.4645705   -5.2561787 
C     5.6570696    1.7412233   -6.5365544 
C     4.9031784    1.3046711   -7.5903745 
C     3.7634757    0.5903329   -7.3694870 
C     3.4083423    0.3307064   -6.0934652 
H     5.8736108    1.8246004   -4.4224434 
H     6.5597349    2.3191186   -6.7184327 
H     5.2104846    1.5332453   -8.6073874 
H     3.1515861    0.2407351   -8.1936697 
N     2.2646022   -0.3842294   -5.6500285 
C     2.4326693   -0.3175483   -4.2286346 
H     1.5098798   -0.8394358   -6.2115934 
H     1.7487354   -0.7614215   -3.5107418 
