48
 energy: -9.388038055823 gnorm: 0.000890047673 xtb: 6.6.0 (2ccbbd7)
C            4.33498497792350       -1.42440136350491        4.15582782457978
C            3.65404343316115       -0.96102936919353        3.05506772900338
C            4.84889833434679       -0.53369741397402        5.09872615287337
C            4.65428831496118        0.83169959923497        4.89247219595095
C            3.97110642331671        1.28688608567416        3.79027495715084
C            3.45711810498760        0.39765959533552        2.85738657646182
H            3.26455408918322       -1.65563711546287        2.33049812367154
H            5.05136267554450        1.51810491150211        5.61868601124021
H            3.82871586762464        2.34389363536378        3.64370236747740
H            4.47893933928369       -2.48005832426035        4.30035402292096
C            2.74529838946369        0.89005039191303        1.63634677374766
C            3.61122126667129        0.84647572519602        0.37922494958188
H            2.40064087210897        1.91649439756237        1.79305716217253
H            1.83786762223467        0.29860934002607        1.47266916762978
C            2.81299576550052        1.23662902146629       -0.83567125819977
O            5.53695144345041       -0.96533909143477        6.21660043627620
H            5.58111234647722       -1.94578863092327        6.22702755578663
O            1.70411694024031        0.78086348534415       -1.03008888650991
N            4.80079780776195        1.74379201299776        0.48884155078973
H            3.98504648364366       -0.17568136072068        0.22555974470158
H            4.34997157830109        2.83428811708846        0.31716469078643
H            5.21377186459417        1.78402192525706        1.43747913941861
N            3.42574109730176        2.12891469297938       -1.67778495941045
C            4.80333331473984        2.56536369698212       -1.47235471524833
H            2.93326596818493        2.55972701461056       -2.46515274779045
C            4.97231839888525        3.95270775899019       -2.05215541560333
O            4.24352658246097        4.26907581270524       -2.96697220016688
O            5.94844274850764        4.72737442457520       -1.51681041396804
H            6.43156790617069        4.26135384284598       -0.79813542004057
C            5.79336390752423        1.58367975429001       -2.10029691023838
H            4.97271616512799        2.63978710065465       -0.24322835752730
C            5.63788022873330        1.46810687428571       -3.57958354123097
H            5.65786286458663        0.59680893243626       -1.64934320093923
H            6.81689089796514        1.89212952278104       -1.86724768214983
C            4.61584095025442        0.75752597866840       -4.27751585640937
C            3.52114585249832       -0.01491875393037       -3.85183507747519
C            2.68690556710490       -0.54996315496861       -4.79305572308156
C            2.90841351448189       -0.33907459688288       -6.16325908013351
C            3.96083253753400        0.41645713257419       -6.60215007917237
C            4.82558422525226        0.97580381305171       -5.65285330936836
H            3.32537971777052       -0.13837609747576       -2.80229009055539
H            1.83513617129041       -1.12964497296415       -4.47759616232792
H            2.22985980084876       -0.77180450085842       -6.87965980416150
H            4.13098668922923        0.59391502937827       -7.64887707545366
N            5.93511367277606        1.79201132315542       -5.78045556876212
C            6.40378697095796        2.10035100142505       -4.52805292897738
H            6.27879737456320        2.17197222193026       -6.66444218813522
H            7.22655818115242        2.76710541762790       -4.32464362725753
