48
Energy =
C    -1.2095139    3.8638797   -0.0438704 
C    -0.3938794    3.5560482   -1.0854246 
C    -2.5592536    3.8084729   -0.1931161 
C    -3.0848127    3.4434252   -1.3837958 
C    -2.2751349    3.1315200   -2.4271823 
C    -0.9211509    3.1841029   -2.2849532 
H     0.6860112    3.5918083   -0.9447252 
H    -4.1635295    3.4029693   -1.4893733 
H    -2.7223860    2.8397533   -3.3737964 
H    -0.7804659    4.1490301    0.9109985 
C    -0.0176206    2.8354810   -3.4536645 
C     0.4734042    1.3569424   -3.4818200 
H     0.8523750    3.5325609   -3.4772832 
H    -0.5508038    3.0429199   -4.4072099 
C     1.6344101    1.0828443   -2.5340406 
O    -3.4266101    4.1210918    0.8583416 
H    -2.9566584    4.3700350    1.7219028 
O     1.5354871    1.3673656   -1.1770586 
N    -0.6380569    0.4087078   -3.2735230 
H     0.9118718    1.1741022   -4.4952202 
H    -0.9631715    0.4619937   -2.2760126 
H    -1.4489606    0.6557497   -3.8873165 
N     2.9029141    0.6749639   -3.0567136 
C     3.9701939    1.6933640   -3.0688385 
H     3.0109491   -0.3003888   -3.4107990 
C     3.5250169    2.9588915   -3.7937270 
O     2.7442025    2.8615790   -4.9395336 
O     3.8302983    4.2288094   -3.3120610 
H     4.4565495    4.1955658   -2.5224102 
C     5.2403214    1.1165490   -3.7290819 
H     4.1945937    1.9751116   -2.0156132 
C     5.8531820    0.0080107   -2.9020318 
H     5.9980817    1.9192610   -3.8706089 
H     4.9875658    0.7434157   -4.7478957 
C     6.5835693    0.1499638   -1.7850945 
C     6.9726912    1.2780935   -1.1371852 
C     7.7214560    1.1488295   -0.0043599 
C     8.0666054   -0.0913516    0.4577011 
C     7.6657556   -1.2099659   -0.2110386 
C     6.9260193   -1.0558272   -1.3292493 
H     6.7012045    2.2626894   -1.5049641 
H     8.0455737    2.0360664    0.5340798 
H     8.6627289   -0.1863820    1.3617319 
H     7.9304523   -2.2008763    0.1417099 
N     6.4111676   -2.0809652   -2.1671883 
C     5.7274811   -1.3056255   -3.1604984 
H     6.5086484   -3.1184686   -2.0823294 
H     5.1806602   -1.7281776   -3.9997598 
