48
Energy =
C    -2.1759282    2.7412261    1.0762705 
C    -0.9678159    2.5989996    1.6773102 
C    -2.2518592    3.1652835   -0.2133076 
C    -1.1167730    3.4456301   -0.8926806 
C     0.0943279    3.3027234   -0.2977856 
C     0.1772505    2.8731311    0.9923180 
H    -0.9237974    2.2609102    2.7088503 
H    -1.1912899    3.7873428   -1.9194700 
H     0.9941215    3.5362031   -0.8626158 
H    -3.0806607    2.5145878    1.6299310 
C     1.5285270    2.7091767    1.6584937 
C     1.8479076    1.2379486    2.0205318 
H     1.5448914    3.3247031    2.5843243 
H     2.3346843    3.1160680    1.0066599 
C     1.7057592    0.2764221    0.8450286 
O    -3.4804613    3.3235789   -0.8623790 
H    -4.2833542    3.0834868   -0.2908927 
O     0.7825494   -0.7582321    0.9326584 
N     3.1871897    1.1548673    2.6299358 
H     1.1017674    0.8831642    2.7707655 
H     3.8850297    1.7264582    2.0935424 
H     3.1540904    1.5688073    3.5913585 
N     2.2250765    0.5988728   -0.4497384 
C     3.6830343    0.5345243   -0.6463068 
H     1.5522031    0.9153073   -1.1811651 
C     4.2581499    1.9244017   -0.8580555 
O     5.2353321    2.3893561    0.0114565 
O     3.8237989    2.7611107   -1.8858281 
H     3.1413108    2.3100695   -2.4746184 
C     3.9953859   -0.4020177   -1.8305057 
H     4.1917317    0.1350422    0.2640930 
C     3.7170310   -1.8434890   -1.4666380 
H     5.0605885   -0.2981090   -2.1363553 
H     3.3851459   -0.1197798   -2.7166377 
C     4.5429568   -2.6833955   -0.8227883 
C     5.8081448   -2.4847810   -0.3711525 
C     6.4343491   -3.5109611    0.2734453 
C     5.7928093   -4.7045842    0.4585064 
C     4.5202709   -4.8788109    0.0010356 
C     3.9236586   -3.8500946   -0.6368288 
H     6.3168720   -1.5352356   -0.5086146 
H     7.4470513   -3.3774775    0.6463171 
H     6.2968637   -5.5162718    0.9774116 
H     3.9932421   -5.8157912    0.1470017 
N     2.6066862   -3.8163616   -1.1670937 
C     2.5496907   -2.4768524   -1.6759533 
H     1.8795805   -4.5677410   -1.1946056 
H     1.6657188   -2.0255553   -2.1209213 
