48
Energy =
C    -1.2467861    2.8391697   -3.0485516 
C    -0.1983918    2.7991296   -2.1885293 
C    -2.4940621    2.5069570   -2.6217346 
C    -2.6839029    2.1440415   -1.3329790 
C    -1.6393283    2.1065162   -0.4676313 
C    -0.3856023    2.4260641   -0.8926183 
H     0.7888441    3.0709512   -2.5470971 
H    -3.6824610    1.8817277   -1.0029365 
H    -1.8132726    1.8092064    0.5624770 
H    -1.0832604    3.1372753   -4.0782262 
C     0.7878196    2.3511442    0.0641226 
C     1.1132626    0.8972686    0.4801879 
H     0.5419621    2.9475742    0.9685313 
H     1.6932321    2.8225846   -0.3797112 
C     1.4545619    0.0141838   -0.7121696 
O    -3.5949946    2.5308676   -3.4856153 
H    -3.3719236    2.8416952   -4.4244537 
O     0.4196791   -0.6514743   -1.3592768 
N     2.1714462    0.8945985    1.5061984 
H     0.1996373    0.4287251    0.9143426 
H     2.9951937    1.4449343    1.1689926 
H     1.8205459    1.3677711    2.3716769 
N     2.8012051   -0.4058694   -0.9829869 
C     3.3351634    0.1083836   -2.2682955 
H     2.7701160   -1.4505521   -0.9921225 
C     3.5850175    1.6134794   -2.2159827 
O     3.1226071    2.4344039   -3.2380566 
O     4.3401002    2.1881625   -1.1952163 
H     4.6600631    1.4886747   -0.5398374 
C     2.4766178   -0.3103087   -3.4987399 
H     4.3528008   -0.3172860   -2.4045340 
C     2.4106232   -1.8143080   -3.6952342 
H     2.9240020    0.1247821   -4.4200288 
H     1.4678555    0.1459837   -3.4164078 
C     1.3111019   -2.5869910   -3.8125169 
C    -0.0083791   -2.2639124   -3.7485269 
C    -0.9317152   -3.2531661   -3.9263206 
C    -0.5308531   -4.5360335   -4.1702339 
C     0.7952178   -4.8396078   -4.2356016 
C     1.6898343   -3.8463965   -4.0506854 
H    -0.3395361   -1.2516291   -3.5369103 
H    -1.9931677   -3.0211615   -3.8649220 
H    -1.2730792   -5.3189280   -4.3091894 
H     1.1297040   -5.8531412   -4.4315193 
N     3.1041899   -3.9546477   -4.1046295 
C     3.4925853   -2.5958074   -3.8758292 
H     3.6980721   -4.7999343   -4.2737355 
H     4.5236986   -2.2490504   -3.8838773 
