48
Energy =
C    -4.2484129    0.6355611    0.8784399 
C    -2.9132679    0.6528355    1.1209860 
C    -4.7732515   -0.2685364    0.0087128 
C    -3.9568757   -1.1494119   -0.6130396 
C    -2.6208225   -1.1363035   -0.3747038 
C    -2.0912967   -0.2359407    0.4983006 
H    -2.5061616    1.3829289    1.8164118 
H    -4.3882257   -1.8641829   -1.3051183 
H    -1.9817102   -1.8494353   -0.8878576 
H    -4.8943065    1.3475241    1.3808393 
C    -0.6012983   -0.2011159    0.7552064 
C     0.0949219    0.9441468   -0.0162826 
H    -0.1341925   -1.1764071    0.4954487 
H    -0.4321157   -0.0638228    1.8473569 
C     1.5403900    1.0849927    0.4201148 
O    -6.1441376   -0.3129317   -0.2651403 
H    -6.6869276    0.3782787    0.2410700 
O     1.8930737    2.0639452    1.0942761 
N     0.0038464    0.7323677   -1.4703106 
H    -0.3949817    1.9135216    0.2439181 
H     0.2892831   -0.2460759   -1.7029590 
H    -0.9904016    0.8516839   -1.7743906 
N     2.5434318    0.1439251   -0.0005493 
C     3.8484145    0.7604129   -0.2956975 
H     2.3402444   -0.8744094   -0.1097669 
C     3.9237113    2.1540721    0.3338999 
O     5.0136122    2.9810845    0.0783238 
O     3.0082215    2.5488515    1.0729140 
H     2.6359943    1.9214978    1.7548158 
C     4.0371342    0.8261051   -1.8237390 
H     4.6571445    0.1580474    0.1709395 
C     4.1574568   -0.5524262   -2.4305040 
H     4.9467566    1.4157487   -2.0765983 
H     3.1715478    1.3661314   -2.2716326 
C     5.2313957   -1.3557800   -2.3924602 
C     6.4561918   -1.1457855   -1.8455964 
C     7.3873381   -2.1377948   -1.9429649 
C     7.0836831   -3.3104356   -2.5783645 
C     5.8466454   -3.4979190   -3.1207168 
C     4.9429176   -2.5015091   -3.0113435 
H     6.6986832   -0.2137776   -1.3428803 
H     8.3763096   -1.9945569   -1.5138877 
H     7.8316054   -4.0960514   -2.6522052 
H     5.5895216   -4.4213157   -3.6283718 
N     3.6086607   -2.4929458   -3.5002575 
C     3.1704400   -1.1943459   -3.0785545 
H     3.0896956   -3.2362381   -4.0215445 
H     2.1784040   -0.7888614   -3.2611860 
