48
Energy =
C     1.0043757   -1.8668410    2.5656630 
C     2.2007447   -1.3292405    2.2124756 
C     0.1983652   -1.2185511    3.4476789 
C     0.5946292   -0.0363415    3.9709113 
C     1.7884090    0.5059159    3.6204227 
C     2.6002689   -0.1375624    2.7366950 
H     2.8394824   -1.8552441    1.5038916 
H    -0.0579024    0.4704131    4.6738456 
H     2.0863920    1.4585059    4.0506464 
H     0.6921580   -2.8152015    2.1410734 
C     3.9288711    0.4726923    2.3331350 
C     3.8634899    1.2945960    1.0194209 
H     4.6900447   -0.3331013    2.2211104 
H     4.3130114    1.1226670    3.1499858 
C     3.5294952    0.4370879   -0.2010534 
O    -1.0388497   -1.7440618    3.8319751 
H    -1.2654916   -2.6319991    3.3977948 
O     4.0732266   -0.8426728   -0.2747806 
N     2.9499948    2.4414506    1.1694376 
H     4.8879572    1.6834703    0.8187347 
H     1.9704607    2.1048248    1.3300656 
H     3.2270285    3.0101731    2.0042125 
N     3.0775554    1.0350241   -1.4282783 
C     4.2045204    1.3632195   -2.3393124 
H     2.4646071    1.8541609   -1.2172606 
C     4.1912688    2.8204415   -2.8187533 
O     4.4212848    3.1235893   -4.1555479 
O     4.0690721    3.8817480   -1.9227789 
H     4.0300564    3.5685000   -0.9649776 
C     4.2011477    0.3432807   -3.5024351 
H     5.1907496    1.2585711   -1.8272836 
C     2.8621898    0.2557146   -4.2129851 
H     4.4693416   -0.6563417   -3.0966483 
H     4.9984151    0.5988195   -4.2353427 
C     1.8317370   -0.5480165   -3.8970325 
C     1.7168921   -1.4738514   -2.9096882 
C     0.5472581   -2.1665734   -2.8008126 
C    -0.4795839   -1.9290490   -3.6717480 
C    -0.3421773   -0.9970129   -4.6569350 
C     0.8247338   -0.3244576   -4.7435233 
H     2.5292748   -1.6626210   -2.2148980 
H     0.4324170   -2.9101930   -2.0165674 
H    -1.4091497   -2.4846549   -3.5784812 
H    -1.1463429   -0.7954800   -5.3562766 
N     1.1672379    0.6772670   -5.6895344 
C     2.5017640    1.0014596   -5.2738458 
H     0.6035538    1.0669265   -6.4796045 
H     3.1285032    1.7524994   -5.7517651 
