48
Energy =
C    -0.4918395   -0.7976050    0.7646419 
C    -0.1373614    0.3455868    1.4048981 
C    -0.8156692   -0.7691223   -0.5560289 
C    -0.7882517    0.4052616   -1.2251928 
C    -0.4278481    1.5487785   -0.5927037 
C    -0.1002051    1.5271531    0.7290478 
H     0.1289402    0.3071199    2.4575678 
H    -1.0410808    0.4169907   -2.2799464 
H    -0.3905605    2.4753392   -1.1594672 
H    -0.5083920   -1.7350280    1.3099039 
C     0.3318870    2.8003296    1.4287548 
C     1.8312909    2.7928810    1.8214995 
H    -0.2831583    2.9332616    2.3457171 
H     0.1114816    3.6827486    0.7884721 
C     2.7523981    2.2542419    0.7306206 
O    -1.1725445   -1.9300466   -1.2499999 
H    -1.1648552   -2.7693736   -0.6803015 
O     3.4750206    1.0936189    0.9912874 
N     2.2416543    4.1418316    2.2467214 
H     1.9680331    2.0936678    2.6813225 
H     2.0134187    4.8547731    1.5138786 
H     1.7148445    4.4115835    3.1117020 
N     2.6809682    2.7409019   -0.6241053 
C     4.0345451    2.9600953   -1.1975402 
H     2.1459879    3.6381861   -0.6045244 
C     4.0752919    4.1955340   -2.0984591 
O     4.1355518    4.0762418   -3.4793308 
O     4.0311947    5.4769093   -1.5475235 
H     3.9988639    5.4638882   -0.5381149 
C     4.5435305    1.6679233   -1.9006532 
H     4.7741126    3.2043708   -0.3967247 
C     3.4905622    0.9393367   -2.7199195 
H     4.9044362    0.9618984   -1.1201440 
H     5.4364839    1.8945523   -2.5212151 
C     3.3701184    0.8950961   -4.0597963 
C     4.1149169    1.4884016   -5.0289973 
C     3.7863312    1.2621597   -6.3336051 
C     2.7372525    0.4453072   -6.6500628 
C     2.0112025   -0.1516622   -5.6637948 
C     2.3503020    0.0938415   -4.3810461 
H     4.9519924    2.1343419   -4.7869984 
H     4.3621851    1.7355244   -7.1253387 
H     2.4829725    0.2681326   -7.6920569 
H     1.1822752   -0.8115813   -5.8966316 
N     1.7464119   -0.4555352   -3.2205437 
C     2.5410730    0.1455403   -2.1901119 
H     0.9304147   -1.1067820   -3.1365389 
H     2.4121508   -0.0430487   -1.1260653 
