48
Energy =
C     0.1018118   -0.2331555    4.0855880 
C     0.8971152    0.7862995    3.6717401 
C     0.2849244   -1.4872675    3.5918612 
C     1.2625976   -1.7118558    2.6858451 
C     2.0617862   -0.6977269    2.2718600 
C     1.8840628    0.5604514    2.7609374 
H     0.7366875    1.7833357    4.0731274 
H     1.3941581   -2.7130387    2.2930107 
H     2.8341268   -0.8966830    1.5370824 
H    -0.6811443   -0.0426029    4.8115358 
C     2.7701790    1.6968633    2.2904378 
C     2.2607769    2.3968190    1.0038469 
H     3.8026143    1.3187928    2.1244296 
H     2.8747174    2.4523742    3.1003602 
C     2.1350876    1.4471967   -0.1814598 
O    -0.5140094   -2.5607287    3.9997709 
H    -1.2333622   -2.3069505    4.6680281 
O     1.0332790    0.6086548   -0.3061635 
N     0.9994507    3.1142483    1.2560975 
H     3.0304818    3.1483491    0.7071597 
H     0.2303416    2.4246885    1.4398221 
H     1.0911851    3.7219557    2.1031432 
N     3.0896379    1.4802882   -1.2470024 
C     4.4211215    0.9058217   -0.9859667 
H     2.8159805    1.9423471   -2.1424021 
C     5.4975701    1.9803401   -1.0267995 
O     6.2122349    2.2601336    0.1306652 
O     5.7792840    2.7084848   -2.1823583 
H     5.1812127    2.4451614   -2.9495103 
C     4.6918768   -0.2339414   -1.9872464 
H     4.4728834    0.4733746    0.0387698 
C     3.7849856   -1.4149254   -1.7171320 
H     5.7526493   -0.5642583   -1.9163469 
H     4.5377405    0.1220757   -3.0293857 
C     3.9460398   -2.3489853   -0.7667046 
C     4.9421583   -2.5012338    0.1433188 
C     4.8498015   -3.5251026    1.0393231 
C     3.7754872   -4.3708844    1.0140735 
C     2.7863820   -4.1975040    0.0919061 
C     2.9022529   -3.1792583   -0.7859628 
H     5.7921951   -1.8257561    0.1720984 
H     5.6339685   -3.6676035    1.7790147 
H     3.7082150   -5.1833713    1.7340303 
H     1.9223630   -4.8534693    0.0633101 
N     1.9730274   -2.8034779   -1.7914501 
C     2.6159391   -1.6448860   -2.3402589 
H     1.0705110   -3.2548165   -2.0677067 
H     2.1846160   -1.0104329   -3.1111604 
