48
 energy: -8.894420991680 gnorm: 0.000633309216 xtb: 6.6.0 (2ccbbd7)
C           -3.68072274363695       -1.81838477394859       -1.02232324398973
C           -2.65246232314785       -1.12989792245468       -1.62228931575573
C           -3.52042118492292       -2.36772333948745        0.25064244378107
C           -2.29454496846379       -2.19672986955267        0.89363151917741
C           -1.27142416158376       -1.50705202363132        0.28743868018804
C           -1.43236625356398       -0.96756453575214       -0.98036096166167
H           -2.78968039039392       -0.70681071764966       -2.60277690368629
H           -2.17215993739499       -2.61518606487273        1.87675995365418
H           -0.33241461858108       -1.37607675641306        0.79747027351366
H           -4.62111579918518       -1.94071663764626       -1.52951719432512
C           -0.32689695872517       -0.18380219576621       -1.61693530903314
C           -0.13983859075690        1.20291232058794       -0.99343370651009
H           -0.52608638687616       -0.06217377249437       -2.68585555878119
H            0.60835989315039       -0.74970756302442       -1.55272596120389
C            0.99644617142935        1.91659963370520       -1.65117095074082
O           -4.53366563149213       -3.06708774999192        0.87966400055161
H           -5.32761078595742       -3.09841446148522        0.30252978984731
O            0.72336817847963        2.57551124852918       -2.81090234872799
N           -1.33657760666245        2.02447914910602       -1.11004607008444
H            0.08341597996788        1.09417201036296        0.07879514502414
H           -1.36827699863382        2.39079112368658       -2.05716063104836
H           -2.16868973424678        1.46948581145436       -0.95283356774541
N            2.27535425269097        1.87787524135441       -1.10243918247471
C            3.46486266130411        2.12010422644879       -1.92552862644906
H            2.44899203249957        1.21295350003029       -0.35142003222255
C            3.47736932313776        3.50692712332821       -2.47081490832608
O            4.76851236619118        4.20461217652188       -2.46241959297876
O            2.35637300929109        4.05031365571319       -3.00370958469928
H            1.51539430580179        3.33832222762373       -2.93803215683794
C            3.57059593837589        1.11028049078179       -3.06264621812406
H            4.34789904132329        2.01495657532275       -1.27799464426687
C            4.76672511518020        1.28499083660161       -3.94472273131321
H            2.66825198629743        1.19214794195148       -3.67709725330406
H            3.56277661222427        0.09445020645125       -2.65438356814269
C            5.70588321620387        2.32394492920241       -3.97389046662868
C            5.93313605809168        3.55106335884260       -3.14114607069788
C            7.01404785713710        4.45588864754110       -3.62336278830329
C            7.78882729935461        4.13744933331821       -4.68643211457507
C            7.60199879967506        2.94611922895771       -5.41073857801869
C            6.57266397773602        2.07172614040194       -5.05686007171970
H            5.58703846049126        3.64173715120588       -1.90131616905856
H            7.15732179837806        5.38891723777237       -3.10731379411265
H            8.56476535287298        4.81707561172009       -4.99824663236868
H            8.22492757536492        2.71102671998670       -6.25443986902813
N            6.17048693063406        0.88437426254727       -5.65551790137967
C            5.08065949325427        0.41954360092867       -4.98964767368629
H            6.61138292764402        0.47808218572297       -6.48296534697406
H            4.53298767549726       -0.47251477817859       -5.24763633080574
