48
Energy =
C     0.4495615   -4.0594284    1.8490127 
C    -0.0662524   -3.2877002    0.8550393 
C     1.7420060   -3.8914863    2.2475589 
C     2.5095856   -2.9530820    1.6472076 
C     1.9890091   -2.1899218    0.6561884 
C     0.7044068   -2.3360199    0.2616329 
H    -1.0945717   -3.4412795    0.5390935 
H     3.5367314   -2.8202953    1.9672312 
H     2.5547900   -1.3367340    0.0791169 
H    -0.1716761   -4.8132920    2.3203659 
C     0.1833978   -1.4928467   -0.8927847 
C     0.6338276    0.0026316   -0.8508792 
H    -0.9283241   -1.5298839   -0.8952020 
H     0.5221345   -1.9534524   -1.8468963 
C     2.1385755    0.2140883   -1.1385447 
O     2.3027547   -4.6682030    3.2662893 
H     1.6627185   -5.3458489    3.6654506 
O     3.0980029   -0.5424525   -0.4541916 
N    -0.2086573    0.7767374   -1.7797850 
H     0.4833046    0.3964845    0.1828965 
H    -0.1927582    0.3368180   -2.7315700 
H    -1.2029395    0.7730202   -1.4483560 
N     2.5844362    1.3553320   -1.8902806 
C     4.0300769    1.6522580   -1.9138310 
H     1.8817887    1.9759832   -2.3555628 
C     4.2874705    3.1371214   -2.1496315 
O     3.5190514    3.8287441   -3.0786015 
O     5.3385732    3.8099816   -1.5246700 
H     5.8931739    3.2044264   -0.9376269 
C     4.6879475    0.7927579   -3.0115528 
H     4.4756461    1.4095681   -0.9214948 
C     6.1962119    0.8623531   -2.9390311 
H     4.3313439    1.1246090   -4.0132631 
H     4.3645760   -0.2661017   -2.9019206 
C     6.9921212    0.1470844   -2.1294261 
C     6.6743614   -0.8136265   -1.2241703 
C     7.6827136   -1.3837872   -0.5042640 
C     8.9776354   -0.9864724   -0.6944347 
C     9.2715808   -0.0148005   -1.6048827 
C     8.2567543    0.5310914   -2.3073982 
H     5.6450211   -1.1242935   -1.0653525 
H     7.4542008   -2.1556044    0.2269843 
H     9.7752707   -1.4437687   -0.1143317 
H    10.2919534    0.3177694   -1.7622855 
N     8.3411298    1.5658731   -3.2770808 
C     6.9599106    1.7271219   -3.6294752 
H     9.1832391    2.0707837   -3.6371724 
H     6.5808607    2.4796467   -4.3204233 
