48
Energy =
C     6.7277500   -1.8672684    2.8507913 
C     5.6491290   -1.8134080    2.0295395 
C     6.5794902   -1.6656603    4.1872990 
C     5.3510978   -1.4105212    4.6925422 
C     4.2688152   -1.3550949    3.8753937 
C     4.4119878   -1.5601079    2.5375106 
H     5.7830350   -1.9723862    0.9633741 
H     5.2466975   -1.2502466    5.7602198 
H     3.2910688   -1.1448696    4.3006014 
H     7.7088434   -2.0704175    2.4357913 
C     3.2147289   -1.4856341    1.6173413 
C     3.1682597   -0.1635263    0.8120079 
H     2.2637124   -1.6173339    2.1801777 
H     3.2582320   -2.3459551    0.9102060 
C     2.0787508   -0.1886973   -0.2591719 
O     7.6699956   -1.7131951    5.0615258 
H     8.5552818   -1.9097288    4.6075647 
O     1.1733706   -1.2442623   -0.3012238 
N     2.9782463    0.9853438    1.7104227 
H     4.1355876   -0.0546429    0.2743181 
H     2.1409949    0.8249096    2.3196792 
H     3.8111629    1.0855822    2.3365737 
N     1.8390337    0.9321864   -1.1258161 
C     2.9817655    1.2616337   -2.0116362 
H     1.6164334    1.7426512   -0.5015350 
C     2.7335781    2.5759088   -2.7586412 
O     1.4394818    3.0434237   -2.9518078 
O     3.7936698    3.3075412   -3.2972547 
H     4.6852934    2.8713485   -3.1209450 
C     3.2205069    0.1106610   -3.0274232 
H     3.8930703    1.4524205   -1.4027367 
C     4.2470687   -0.8905031   -2.5362787 
H     3.5914283    0.5097963   -3.9989610 
H     2.2485023   -0.3741053   -3.2635838 
C     4.0438875   -2.1680560   -2.1685392 
C     2.8992976   -2.8985545   -2.1290575 
C     2.9655303   -4.1882980   -1.6880787 
C     4.1620551   -4.7260317   -1.3038343 
C     5.2993843   -3.9777038   -1.3576421 
C     5.2078010   -2.7047446   -1.7952923 
H     1.9420845   -2.4699736   -2.4151985 
H     2.0593392   -4.7894181   -1.6354971 
H     4.2073750   -5.7544931   -0.9531363 
H     6.2567941   -4.3890122   -1.0564900 
N     6.2639135   -1.7634749   -1.9114465 
C     5.5572738   -0.6174791   -2.4000796 
H     7.2787999   -1.8752525   -1.6853830 
H     6.0235770    0.3366142   -2.6350143 
