48
Energy =
C     1.8204138   -2.3248129   -1.8796093 
C     0.7393171   -1.7455240   -2.4602285 
C     2.5501067   -3.2468574   -2.5615794 
C     2.1859553   -3.5926571   -3.8165890 
C     1.1029196   -3.0216484   -4.3998295 
C     0.3739453   -2.0876561   -3.7275897 
H     0.1695771   -1.0043038   -1.9033635 
H     2.7731006   -4.3333535   -4.3484917 
H     0.8265093   -3.3131151   -5.4096342 
H     2.1003383   -2.0469230   -0.8689285 
C    -0.8237896   -1.4285427   -4.3840602 
C    -0.4678635   -0.1561479   -5.1925757 
H    -1.5736221   -1.1610080   -3.6049125 
H    -1.3370294   -2.1555585   -5.0506909 
C     0.1902215    0.9169812   -4.3350496 
O     3.6778439   -3.8507111   -1.9992976 
H     3.8852839   -3.5439962   -1.0546447 
O    -0.4005330    1.2785859   -3.1289724 
N     0.3306928   -0.4959740   -6.3858625 
H    -1.4229098    0.3065248   -5.5335222 
H     1.2629933   -0.8803697   -6.1090655 
H    -0.1652969   -1.2212755   -6.9560685 
N     1.1971599    1.7728922   -4.8900161 
C     2.4201122    1.9739943   -4.0916478 
H     1.0282475    2.1819916   -5.8371028 
C     3.1831440    3.2201137   -4.5360817 
O     3.5445734    4.1712090   -3.5908572 
O     3.5892410    3.4033500   -5.8602589 
H     3.2633600    2.6620200   -6.4604900 
C     3.2933833    0.7025596   -4.1753058 
H     2.1336597    2.1620818   -3.0283548 
C     4.4533395    0.7567631   -3.2050937 
H     3.6497140    0.5428287   -5.2151282 
H     2.6764824   -0.1867858   -3.9298070 
C     5.7110970    1.1545400   -3.4600295 
C     6.2750576    1.5815365   -4.6194814 
C     7.5900226    1.9430021   -4.6063830 
C     8.3143222    1.8741742   -3.4486878 
C     7.7268199    1.4459415   -2.2956227 
C     6.4247103    1.0931892   -2.3339581 
H     5.7031761    1.6527229   -5.5387780 
H     8.0614337    2.2970466   -5.5201240 
H     9.3603687    2.1702116   -3.4458786 
H     8.2845173    1.3938363   -1.3668150 
N     5.6267471    0.6404702   -1.2493420 
C     4.3625176    0.4551939   -1.8978298 
H     5.8962446    0.4803790   -0.2517684 
H     3.4514981    0.1484809   -1.3904323 
