48
Energy =
C    -0.1225672   -0.0425691    3.1047394 
C     0.8287568    0.8820147    2.8036371 
C    -0.8614053   -0.6154562    2.1123854 
C    -0.6476498   -0.2536657    0.8263685 
C     0.2990602    0.6699005    0.5365637 
C     1.0512034    1.2307744    1.5076014 
H     1.4058886    1.3360086    3.6045467 
H    -1.2326861   -0.7121550    0.0376125 
H     0.6105884    1.0309446   -0.5370402 
H    -0.2911240   -0.3219710    4.1390895 
C     2.0757507    2.2855073    1.1191779 
C     2.9520683    1.8863423   -0.1103260 
H     2.7400491    2.4874911    1.9876109 
H     1.5383076    3.2336721    0.8959185 
C     2.1886964    1.8600251   -1.4581261 
O    -1.8383613   -1.5775944    2.3868398 
H    -1.9496192   -1.7805206    3.3741466 
O     0.8873578    1.3623451   -1.5477786 
N     4.1146811    2.7896911   -0.1780739 
H     3.3128943    0.8405886    0.0399132 
H     3.7859575    3.7844228   -0.2369970 
H     4.6902405    2.7000554    0.6930159 
N     2.8548241    2.1270234   -2.6947022 
C     4.0768601    1.3634035   -3.0193397 
H     2.5127018    2.9324664   -3.2658166 
C     4.9782250    2.1757773   -3.9389320 
O     5.0398726    1.8876841   -5.2970234 
O     5.7318763    3.2406938   -3.4475848 
H     5.5469542    3.4113673   -2.4688790 
C     3.6935673   -0.0021588   -3.6396251 
H     4.6951261    1.1935198   -2.1118752 
C     3.1511021   -0.9669370   -2.6074521 
H     4.5810601   -0.4681623   -4.1241457 
H     2.9467062    0.1617170   -4.4498306 
C     3.8578909   -1.6204961   -1.6722421 
C     5.1954774   -1.6255108   -1.4390969 
C     5.6674525   -2.3611952   -0.3920433 
C     4.8052984   -3.0701576    0.3984215 
C     3.4658300   -3.0496999    0.1448509 
C     3.0243484   -2.3186778   -0.8995702 
H     5.8814998   -1.0634196   -2.0665679 
H     6.7349576   -2.3846639   -0.1853071 
H     5.1890308   -3.6536409    1.2316880 
H     2.7673627   -3.6036199    0.7632805 
N     1.6792791   -2.1490296   -1.3204754 
C     1.8499088   -1.2554862   -2.4311547 
H     0.8044293   -2.5618735   -0.9219572 
H     1.0339363   -0.8022891   -2.9953867 
