48
Energy =
C    -2.3218955   -1.8873910   -0.5573855 
C    -1.3131669   -1.2224797   -1.1757151 
C    -2.8329445   -1.4193716    0.6127920 
C    -2.3308236   -0.2871805    1.1558492 
C    -1.3224478    0.3818557    0.5417421 
C    -0.8042871   -0.0848487   -0.6271191 
H    -0.9189754   -1.6063921   -2.1127190 
H    -2.7480981    0.0768863    2.0883174 
H    -0.9337847    1.2917684    0.9919705 
H    -2.7196998   -2.7933401   -1.0017988 
C     0.3071164    0.6710701   -1.3201672 
C    -0.2219107    1.8987005   -2.1001331 
H     0.8698020   -0.0012813   -2.0053531 
H     1.0389202    1.0077867   -0.5509982 
C     0.9204127    2.7598027   -2.6056716 
O    -3.8725504   -2.0800767    1.2751670 
H    -4.1925836   -2.9197955    0.8052830 
O     1.1443317    4.0108539   -2.0434782 
N    -1.0922761    1.4795314   -3.2117098 
H    -0.8024647    2.5519722   -1.4057435 
H    -0.6285136    0.7240102   -3.7690475 
H    -1.9818867    1.0823057   -2.8272557 
N     1.8658654    2.2393702   -3.5502405 
C     3.2163963    1.9330506   -3.0434617 
H     1.5616066    2.0789277   -4.5373108 
C     4.1690521    3.1182729   -3.2092686 
O     5.0154048    3.4593734   -2.1602877 
O     4.2810305    3.8160748   -4.4137096 
H     3.5783661    3.5161609   -5.0716264 
C     3.7273765    0.6655702   -3.7592015 
H     3.1754477    1.7268941   -1.9474702 
C     4.9844586    0.1243676   -3.1133426 
H     3.9012106    0.8718745   -4.8378657 
H     2.9393371   -0.1191332   -3.7171001 
C     6.2550582    0.4140742   -3.4393762 
C     6.7441632    1.2182715   -4.4184709 
C     8.0965971    1.3513199   -4.5329881 
C     8.9313276    0.6861494   -3.6782089 
C     8.4181482   -0.1153552   -2.7021504 
C     7.0766647   -0.2309817   -2.6090590 
H     6.0860808    1.7553063   -5.0943951 
H     8.5118064    1.9958575   -5.3040811 
H    10.0080145    0.8017743   -3.7734596 
H     9.0658987   -0.6450433   -2.0121115 
N     6.3452058   -0.9988070   -1.6634407 
C     4.9982007   -0.7067794   -2.0562771 
H     6.6986773   -1.6127547   -0.8942958 
H     4.1144640   -1.0934357   -1.5542436 
