48
Energy =
C    -3.6449393    1.9617267    0.0794491 
C    -2.2990835    1.9289306   -0.0922807 
C    -4.2925980    0.8898805    0.6093684 
C    -3.5877271   -0.2085885    0.9636314 
C    -2.2417372   -0.2469123    0.7943590 
C    -1.5879606    0.8249108    0.2676211 
H    -1.7942291    2.7918957   -0.5187662 
H    -4.1161262   -1.0576042    1.3831738 
H    -1.6950828   -1.1413870    1.0803019 
H    -4.2017535    2.8466772   -0.2089305 
C    -0.0886673    0.7833741    0.0577113 
C     0.3081338    0.5590327   -1.4298202 
H     0.3733928   -0.0093627    0.6877881 
H     0.3102363    1.7558113    0.4166705 
C     1.8196203    0.4347864   -1.6843302 
O    -5.6784793    0.8904612    0.7984183 
H    -6.1330335    1.7499080    0.5102029 
O     2.2007929   -0.0920633   -2.9119327 
N    -0.3902726   -0.6244217   -1.9645026 
H     0.0008248    1.4511894   -2.0209146 
H    -0.2342807   -1.4489025   -1.3388597 
H    -1.4195311   -0.4482226   -2.0306838 
N     2.8042166    1.0261337   -0.7881940 
C     4.2676248    1.2092137   -1.0617147 
H     2.4102789    1.5211184    0.0332629 
C     4.8088703    2.5073785   -0.4174241 
O     6.1261450    2.8954411   -0.6127750 
O     4.0540368    3.2795581    0.4611893 
H     3.7624311    2.7188645    1.2463728 
C     4.6246889    1.0988934   -2.5745921 
H     4.8088958    0.3948028   -0.5343046 
C     6.0754231    1.3713646   -2.9218456 
H     3.9480022    1.7552863   -3.1641032 
H     4.4454641    0.0584651   -2.9118046 
C     7.1131614    0.5372974   -2.7445367 
C     7.1417683   -0.7201582   -2.2318729 
C     8.3424919   -1.3630749   -2.1591470 
C     9.4833126   -0.7475258   -2.5947684 
C     9.4300979    0.5148370   -3.1069069 
C     8.2304221    1.1298100   -3.1691486 
H     6.2380235   -1.2119822   -1.8848751 
H     8.3928698   -2.3697802   -1.7513136 
H    10.4367926   -1.2657681   -2.5313054 
H    10.3255441    1.0181360   -3.4551410 
N     7.9585282    2.4324656   -3.6655984 
C     6.5401585    2.5128925   -3.4631056 
H     8.6155904    3.1318107   -4.0807930 
H     5.9377200    3.3970362   -3.6630195 
