48
Energy =
C    -2.3081792    1.1594767   -1.1844979 
C    -1.5164557    0.2743069   -1.8424151 
C    -2.8311067    2.2284359   -1.8426233 
C    -2.5531178    2.4072855   -3.1542492 
C    -1.7621801    1.5254196   -3.8167297 
C    -1.2470957    0.4472563   -3.1659087 
H    -1.0853939   -0.5680564   -1.3027035 
H    -2.9683256    3.2688653   -3.6654145 
H    -1.5411725    1.6919388   -4.8679479 
H    -2.5175881    1.0140604   -0.1301882 
C    -0.3428246   -0.5235142   -3.8935960 
C     1.1315945   -0.0695892   -3.8592992 
H    -0.6751024   -0.6203715   -4.9503971 
H    -0.4273775   -1.5401584   -3.4479472 
C     1.6524485    0.0422761   -2.4339683 
O    -3.6531636    3.1564174   -1.1951735 
H    -3.8029919    2.9592142   -0.2120048 
O     1.5774558   -1.0424751   -1.5622444 
N     1.9539289   -0.9984466   -4.6561239 
H     1.2108642    0.9548269   -4.2997188 
H     1.8616528   -1.9698714   -4.2688872 
H     1.6061235   -1.0191600   -5.6440628 
N     2.1430756    1.2969393   -1.9403395 
C     3.6116645    1.5226563   -2.0658467 
H     1.8596645    1.3391268   -0.9341217 
C     3.8573967    2.8928455   -2.6928484 
O     3.2827619    3.1931207   -3.9225868 
O     4.7122097    3.8307623   -2.1108367 
H     5.1085257    3.5108350   -1.2414220 
C     4.3664784    0.4188395   -2.8645468 
H     4.0478755    1.5449086   -1.0411417 
C     5.8666274    0.6211380   -2.8283717 
H     4.0021010    0.3905900   -3.9169176 
H     4.1465818   -0.5842436   -2.4337722 
C     6.6234215    1.2689278   -3.7304829 
C     6.2715890    1.8733326   -4.8948802 
C     7.2472890    2.4747325   -5.6337309 
C     8.5455017    2.4631139   -5.2049291 
C     8.8760522    1.8511465   -4.0326891 
C     7.8930231    1.2633674   -3.3188037 
H     5.2415309    1.8948300   -5.2384039 
H     6.9883259    2.9720893   -6.5656075 
H     9.3159075    2.9487672   -5.7987585 
H     9.9004973    1.8373936   -3.6762995 
N     8.0228846    0.5864673   -2.0763063 
C     6.6637409    0.2068276   -1.8272782 
H     8.8804040    0.4152645   -1.5021380 
H     6.3287991   -0.3342738   -0.9446766 
