48
Energy =
C     0.8892688   -0.2849647    4.9576608 
C     1.7959639   -0.8606763    4.1279323 
C    -0.4011609   -0.1304732    4.5582365 
C    -0.7759314   -0.5539458    3.3305155 
C     0.1254031   -1.1305628    2.4974470 
C     1.4209904   -1.2866662    2.8890067 
H     2.8240519   -0.9749380    4.4614390 
H    -1.8076521   -0.4258010    3.0220190 
H    -0.2014579   -1.4679800    1.5181449 
H     1.1986253    0.0517043    5.9415197 
C     2.4384627   -1.9183066    1.9572481 
C     3.0914202   -0.9142508    0.9724433 
H     1.9506137   -2.7352656    1.3780901 
H     3.2365935   -2.4162222    2.5500052 
C     2.0974824   -0.3623098   -0.0527792 
O    -1.3597911    0.4576278    5.3886532 
H    -1.0009220    0.7542862    6.2896948 
O     1.1678007   -1.2228677   -0.6264384 
N     3.8123993    0.1458944    1.7030764 
H     3.8297752   -1.4830956    0.3616837 
H     3.1442296    0.7032822    2.2856569 
H     4.5071706   -0.2890107    2.3550635 
N     2.1509629    0.9908882   -0.5363742 
C     3.4157787    1.3013783   -1.2493273 
H     2.0222175    1.6049455    0.2998319 
C     3.7010952    2.8040750   -1.2164368 
O     3.3720061    3.6104044   -2.2998700 
O     4.2768239    3.3990405   -0.0938210 
H     4.4293557    2.7306238    0.6474091 
C     3.3308974    0.7750587   -2.7055062 
H     4.2946675    0.8415756   -0.7440510 
C     3.7645273   -0.6696993   -2.8208168 
H     3.9729425    1.3781947   -3.3865966 
H     2.2890339    0.9035471   -3.0783339 
C     5.0223301   -1.1326080   -2.7520113 
C     6.1888361   -0.4576565   -2.5863035 
C     7.3496278   -1.1724087   -2.5408241 
C     7.3271067   -2.5347927   -2.6604682 
C     6.1431763   -3.1904919   -2.8270606 
C     5.0088522   -2.4608063   -2.8696557 
H     6.2076954    0.6249054   -2.4931518 
H     8.2977659   -0.6557112   -2.4104800 
H     8.2567738   -3.0973559   -2.6244686 
H     6.1071881   -4.2702465   -2.9243242 
N     3.6825108   -2.9423961   -3.0293998 
C     2.9373990   -1.7160370   -2.9869976 
H     3.3407588   -3.9239369   -3.1469368 
H     1.8503554   -1.6467868   -3.0415804 
