48
Energy =
C     2.6074072    0.3679416    2.2559670 
C     2.1831761   -0.7662452    1.6424288 
C     3.9373432    0.6255644    2.3747153 
C     4.8346112   -0.2622781    1.8922210 
C     4.4174359   -1.3965337    1.2761986 
C     3.0863598   -1.6511188    1.1345782 
H     1.1145976   -0.9390518    1.5278404 
H     5.8915886   -0.0428819    1.9899894 
H     5.1551795   -2.0881584    0.8796023 
H     1.8771800    1.0798598    2.6280821 
C     2.6123953   -2.8731864    0.3720413 
C     2.4601382   -2.6335253   -1.1534322 
H     1.6306779   -3.2054778    0.7811588 
H     3.3090566   -3.7218270    0.5469616 
C     1.4674272   -1.5201713   -1.4754848 
O     4.4086927    1.7943321    2.9807389 
H     3.6685944    2.4360879    3.2471467 
O     0.1246840   -1.7172479   -1.1810018 
N     3.7716201   -2.4386678   -1.7971889 
H     2.0010078   -3.5500103   -1.5903310 
H     4.2238765   -1.5696148   -1.4362273 
H     4.3996244   -3.2455500   -1.5722551 
N     1.8319107   -0.3976429   -2.2913166 
C     2.4568651    0.7511836   -1.6101264 
H     1.6865411   -0.4640114   -3.3221051 
C     1.4352906    1.8249898   -1.2810687 
O     1.4203497    2.3719346   -0.0047271 
O     0.6188062    2.3943582   -2.2539500 
H     0.6387380    1.8577190   -3.1075498 
C     3.6253263    1.3036657   -2.4679596 
H     2.8551693    0.4368955   -0.6239806 
C     4.8137383    1.6845474   -1.6067659 
H     3.3023835    2.1773764   -3.0768684 
H     3.9530997    0.5303370   -3.1992649 
C     4.9269997    2.7528947   -0.7985171 
C     4.0711339    3.7856193   -0.5884348 
C     4.4155166    4.7404081    0.3241650 
C     5.6005434    4.6526942    1.0003956 
C     6.4480358    3.6109247    0.7681845 
C     6.0845194    2.6797340   -0.1380747 
H     3.1243214    3.8523825   -1.1179051 
H     3.7379790    5.5683165    0.5246686 
H     5.8646150    5.4099007    1.7347011 
H     7.3864235    3.5205463    1.3046228 
N     6.8107692    1.5171990   -0.5100262 
C     5.9148492    0.9260576   -1.4587480 
H     7.7421246    1.1843778   -0.1701505 
H     6.0997636   -0.0148348   -1.9718871 
