48
Energy =
C     0.2652131    3.5810237   -6.1476776 
C     0.1209683    3.6364817   -4.7984686 
C    -0.4625941    2.6943517   -6.8765293 
C    -1.3297423    1.8669967   -6.2504249 
C    -1.4763591    1.9163218   -4.9021871 
C    -0.7532495    2.8047893   -4.1667768 
H     0.7175441    4.3444156   -4.2251702 
H    -1.9031921    1.1628082   -6.8432787 
H    -2.1750969    1.2395447   -4.4171482 
H     0.9668628    4.2436226   -6.6427309 
C    -0.9070470    2.8421644   -2.6601663 
C    -0.0944190    1.7178855   -1.9690548 
H    -1.9862004    2.7330102   -2.4137606 
H    -0.6025984    3.8329850   -2.2524047 
C     1.4163141    1.9458105   -2.0065242 
O    -0.3374873    2.6118224   -8.2667655 
H     0.3342632    3.2606595   -8.6619623 
O     1.9167948    3.1767732   -2.4127633 
N    -0.5550110    1.5551672   -0.5815521 
H    -0.2745229    0.7625167   -2.5137251 
H    -0.4462177    2.4610966   -0.0640370 
H    -1.5712763    1.3032713   -0.5693553 
N     2.2997762    0.8736362   -1.6115516 
C     3.7712748    1.0085177   -1.4391902 
H     1.8569053   -0.0621347   -1.4822967 
C     4.3450886    2.4292181   -1.5511017 
O     4.6337754    3.1352595   -0.3876106 
O     4.6785794    3.0035093   -2.7813453 
H     4.2299472    2.5111608   -3.5394365 
C     4.4887026    0.0005331   -2.3870808 
H     4.0069098    0.7357468   -0.3855364 
C     4.8703266   -1.3098482   -1.7123012 
H     5.4054730    0.4722755   -2.7985618 
H     3.8433531   -0.2264454   -3.2643464 
C     6.0179045   -1.9962587   -1.8788115 
C     7.1133189   -1.7066027   -2.6319461 
C     8.1561409   -2.5857810   -2.6289137 
C     8.0921828   -3.7312953   -1.8865131 
C     6.9840071   -4.0060244   -1.1432814 
C     5.9660696   -3.1202321   -1.1598633 
H     7.1758064   -0.8039343   -3.2298352 
H     9.0430699   -2.3744107   -3.2216102 
H     8.9273038   -4.4272685   -1.8905086 
H     6.9149684   -4.9129313   -0.5522473 
N     4.7299437   -3.2291493   -0.4728160 
C     4.0755963   -2.0265079   -0.8924531 
H     4.3893930   -3.9845266    0.1650808 
H     3.0735837   -1.7508932   -0.5829331 
