48
Energy =
C     5.9797142    6.3156040    2.1190781 
C     5.4862812    5.1241556    1.6932367 
C     5.4996460    6.8877001    3.2551934 
C     4.5282434    6.2633800    3.9589200 
C     4.0307681    5.0724996    3.5391159 
C     4.5085036    4.4937654    2.4034015 
H     5.8844813    4.6770961    0.7806151 
H     4.1537930    6.7312272    4.8630700 
H     3.2473412    4.5903216    4.1181856 
H     6.7597995    6.8098928    1.5489172 
C     3.9462681    3.1740183    1.9210924 
C     2.9194740    3.3625616    0.7712775 
H     3.4748495    2.6131671    2.7582766 
H     4.8017808    2.5458158    1.5789896 
C     2.5857793    2.0448563    0.0653777 
O     5.9850779    8.1137553    3.7198359 
H     6.7129423    8.5163024    3.1392835 
O     1.2742466    1.7510585   -0.2864255 
N     1.7012384    4.0220557    1.2779037 
H     3.3662419    4.0036369   -0.0223033 
H     1.2693217    3.4494697    2.0417021 
H     1.9243788    4.9698377    1.6618158 
N     3.5616573    0.9986209   -0.0570404 
C     4.5459387    1.0461206   -1.1568826 
H     3.6121728    0.2788552    0.6977440 
C     5.1334318    2.4410716   -1.3825397 
O     6.2676806    2.8107244   -0.6750499 
O     4.4941382    3.4238334   -2.1384203 
H     3.6086428    3.1100168   -2.5020489 
C     3.9276326    0.3914928   -2.4092609 
H     5.4194834    0.4235839   -0.8551582 
C     4.9472606    0.2219355   -3.5147837 
H     3.0501533    0.9676363   -2.7717951 
H     3.5179584   -0.6040174   -2.1311779 
C     5.8146699   -0.7929277   -3.6575825 
C     5.9847586   -1.9065982   -2.8991178 
C     6.9572500   -2.7930065   -3.2584457 
C     7.7384351   -2.5543874   -4.3553178 
C     7.5525351   -1.4269120   -5.0990110 
C     6.5821523   -0.5668357   -4.7249108 
H     5.3705722   -2.0944913   -2.0238351 
H     7.1143433   -3.6920907   -2.6675856 
H     8.5136650   -3.2639285   -4.6332798 
H     8.1676032   -1.2189033   -5.9678316 
N     6.2382381    0.6629592   -5.3468959 
C     5.1766512    1.1147678   -4.4940950 
H     6.6459404    1.1105134   -6.1996814 
H     4.6616079    2.0674973   -4.6034485 
