48
Energy =
C    -2.7983671    0.0860528    0.2421916 
C    -2.2024748    1.0908957   -0.4485267 
C    -2.5555930   -1.2101831   -0.0905420 
C    -1.7202260   -1.4917320   -1.1157026 
C    -1.1216020   -0.4916657   -1.8093211 
C    -1.3613079    0.8074758   -1.4808818 
H    -2.3976817    2.1212643   -0.1630808 
H    -1.5342124   -2.5286923   -1.3708799 
H    -0.4434398   -0.7379411   -2.6227354 
H    -3.4651071    0.3222030    1.0643428 
C    -0.6566688    1.9170366   -2.2294572 
C     0.8051693    2.0767451   -1.7545444 
H    -1.2009957    2.8823358   -2.1245023 
H    -0.6749359    1.6765346   -3.3167713 
C     1.6257008    2.8921510   -2.7393477 
O    -3.1468178   -2.2697992    0.6052511 
H    -3.7676465   -1.9759516    1.3515646 
O     1.2066901    4.1671235   -3.1085145 
N     0.8616852    2.6753851   -0.4112893 
H     1.2767637    1.0697151   -1.7188843 
H     0.3292605    3.5786379   -0.3966162 
H     0.4127297    2.0297811    0.2803037 
N     2.7914997    2.3219564   -3.3576064 
C     3.9120403    2.2013746   -2.3906599 
H     3.0557186    2.9407958   -4.1609170 
C     4.8725439    3.3961204   -2.4500436 
O     6.0512583    3.3097107   -3.1841148 
O     4.5789868    4.5932660   -1.7965928 
H     3.6538274    4.5834463   -1.3885544 
C     4.6316303    0.8611807   -2.6520914 
H     3.5487419    2.1681795   -1.3359670 
C     3.6981593   -0.3145331   -2.4549364 
H     5.5070888    0.7523739   -1.9739450 
H     5.0295147    0.8509636   -3.6925868 
C     3.2894831   -0.8324644   -1.2854245 
C     3.6214328   -0.4838300   -0.0161015 
C     3.0213762   -1.1449428    1.0151876 
C     2.1077219   -2.1314385    0.7650395 
C     1.7904110   -2.4646721   -0.5179746 
C     2.4001835   -1.7989199   -1.5208990 
H     4.3398043    0.3055011    0.1836568 
H     3.2671183   -0.8829207    2.0416558 
H     1.6291050   -2.6502567    1.5922442 
H     1.0633189   -3.2403538   -0.7323114 
N     2.1843484   -1.9621049   -2.9153972 
C     3.0532541   -0.9528309   -3.4472036 
H     1.5493683   -2.6244482   -3.4170593 
H     3.1449226   -0.7134474   -4.5044789 
