48
Energy =
C     0.1111987    4.9332222   -3.5680129 
C     0.3478244    3.7367910   -2.9709351 
C    -1.0941670    5.5434193   -3.4212380 
C    -2.0532958    4.9559430   -2.6710340 
C    -1.8207005    3.7637333   -2.0658137 
C    -0.6178420    3.1428542   -2.2134239 
H     1.3302669    3.2763494   -3.0747872 
H    -3.0088071    5.4560486   -2.5573724 
H    -2.6043771    3.3146531   -1.4618716 
H     0.8918870    5.4066506   -4.1541266 
C    -0.3629753    1.8052890   -1.5432000 
C     0.4977331    1.8962034   -0.2523441 
H     0.1155411    1.1209944   -2.2770671 
H    -1.3297070    1.3175594   -1.2878189 
C     1.9305382    2.3394569   -0.5370721 
O    -1.3726755    6.7716136   -4.0293903 
H    -0.5878542    7.1694642   -4.5336005 
O     2.1673518    3.6993762   -0.6882244 
N    -0.1551675    2.7416658    0.7606250 
H     0.5815872    0.8700462    0.1712231 
H    -0.1270443    3.7446564    0.4512374 
H    -1.1613105    2.4745072    0.8617531 
N     2.8010600    1.3997951   -1.1980540 
C     4.2606338    1.6316306   -1.3404139 
H     2.3421554    0.6154897   -1.7024520 
C     4.7125505    3.1034071   -1.3115084 
O     4.6279989    3.8922439   -2.4534818 
O     5.2887331    3.6617166   -0.1682430 
H     5.0932143    3.1159471    0.6570401 
C     4.8082138    0.8677354   -2.5857095 
H     4.7500684    1.1628763   -0.4598472 
C     3.9862096    1.0590080   -3.8542543 
H     4.8677172   -0.2146728   -2.3443250 
H     5.8585239    1.1800966   -2.7845835 
C     3.0250080    0.2436085   -4.3304971 
C     2.5638583   -0.9423098   -3.8497919 
C     1.5613702   -1.5727198   -4.5256804 
C     1.0434135   -1.0219392   -5.6640968 
C     1.5281207    0.1605427   -6.1364841 
C     2.5189013    0.7662451   -5.4495473 
H     2.9746393   -1.3908229   -2.9508314 
H     1.1754635   -2.5215713   -4.1604838 
H     0.2467612   -1.5324223   -6.1996815 
H     1.1339463    0.6067192   -7.0434695 
N     3.1631439    1.9862872   -5.7782138 
C     4.1069976    2.0967809   -4.7035764 
H     2.9916198    2.6311815   -6.5842001 
H     4.8381847    2.8983178   -4.6124221 
