48
Energy =
C    -3.1551724   -0.2684706    0.2917968 
C    -2.2771027    0.5864562   -0.2906766 
C    -3.9424615   -1.0681212   -0.4761627 
C    -3.8445307   -1.0069377   -1.8236638 
C    -2.9680482   -0.1539286   -2.4118810 
C    -2.1813078    0.6523386   -1.6476290 
H    -1.6506577    1.2138203    0.3377816 
H    -4.4765517   -1.6515593   -2.4248588 
H    -2.9013911   -0.1227015   -3.4967455 
H    -3.2244208   -0.3123087    1.3732929 
C    -1.1901351    1.5880056   -2.3034334 
C     0.1004244    0.8509698   -2.7308353 
H    -0.9467230    2.4345281   -1.6252047 
H    -1.6701351    2.0460109   -3.1991633 
C     0.9554570    1.7220031   -3.6392407 
O    -4.8565623   -1.9609489    0.0924706 
H    -4.8730020   -1.9443662    1.1063348 
O     1.0355042    1.4133353   -4.9918193 
N     0.8580990    0.3840436   -1.5535984 
H    -0.1762724   -0.0265399   -3.3652415 
H     0.9226790    1.1383648   -0.8305361 
H     0.3468917   -0.4173759   -1.1118227 
N     1.7432550    2.8165337   -3.1356643 
C     3.2120094    2.5788030   -3.0284701 
H     1.3569288    3.1115315   -2.2118412 
C     3.9640711    3.6808361   -3.7643161 
O     5.0189082    4.3252088   -3.1299295 
O     3.6756978    4.0067279   -5.0897030 
H     2.8399365    3.5301989   -5.4065466 
C     3.6809958    1.1737801   -3.5110403 
H     3.5086426    2.6760739   -1.9575050 
C     5.1500134    0.9366968   -3.2293410 
H     3.4692476    1.0458607   -4.5966641 
H     3.1025730    0.3825375   -2.9860235 
C     6.1858469    1.1767356   -4.0512889 
C     6.2014859    1.6613237   -5.3202842 
C     7.4064784    1.8190142   -5.9392088 
C     8.5649320    1.4931596   -5.2901451 
C     8.5257264    1.0095522   -4.0163370 
C     7.3216252    0.8628905   -3.4246655 
H     5.2869822    1.9346351   -5.8382098 
H     7.4452379    2.2149298   -6.9514756 
H     9.5213529    1.6273560   -5.7893307 
H     9.4358829    0.7526386   -3.4851604 
N     7.0640039    0.3885391   -2.1104971 
C     5.6345452    0.4754255   -2.0624484 
H     7.7378501    0.0592604   -1.3816414 
H     5.0324440    0.2143261   -1.1947797 
