48
Energy =
C    -4.1950100    1.4266353   -2.0264563 
C    -2.9327278    1.8203587   -2.3316004 
C    -4.7271990    1.7198795   -0.8098415 
C    -3.9911524    2.4063452    0.0934905 
C    -2.7282020    2.8026746   -0.2061814 
C    -2.1921611    2.5138652   -1.4238321 
H    -2.5198184    1.5770550   -3.3073526 
H    -4.4269513    2.6332663    1.0602226 
H    -2.1524296    3.3493727    0.5357213 
H    -4.7767862    0.8758800   -2.7576325 
C    -0.7786581    2.9354609   -1.7594677 
C     0.2304184    1.7648697   -1.6415260 
H    -0.4525190    3.7818701   -1.1140671 
H    -0.7660763    3.3348240   -2.7994376 
C     1.6158010    2.1385712   -2.1599599 
O    -6.0238673    1.3267738   -0.4623355 
H    -6.5110680    0.8237507   -1.1958345 
O     1.8521373    3.4353018   -2.6031771 
N     0.3116550    1.2878544   -0.2508267 
H    -0.1155332    0.9300339   -2.2936208 
H     0.4927832    2.0923028    0.3955313 
H    -0.6008941    0.8567506    0.0291890 
N     2.6462009    1.1254412   -2.2070600 
C     4.0748386    1.3924795   -2.5188155 
H     2.3172754    0.1349870   -2.1422471 
C     4.4166342    2.8236865   -2.9629038 
O     4.3753678    3.1653852   -4.3128714 
O     4.8140485    3.7946017   -2.0400128 
H     4.6554867    3.4931487   -1.0907015 
C     4.5510848    0.3433988   -3.5515540 
H     4.6514778    1.2223318   -1.5835645 
C     6.0551913    0.3604557   -3.7238649 
H     4.0493733    0.5305579   -4.5285722 
H     4.2410660   -0.6760021   -3.2346549 
C     6.9604557   -0.2229514   -2.9228680 
C     6.7783053   -0.9748660   -1.8069490 
C     7.8805942   -1.4513061   -1.1600282 
C     9.1334356   -1.1704505   -1.6313184 
C     9.2915265   -0.4108959   -2.7525705 
C     8.1855411    0.0467304   -3.3759588 
H     5.7842417   -1.1957704   -1.4299457 
H     7.7626807   -2.0559883   -0.2641374 
H    10.0071228   -1.5519263   -1.1089732 
H    10.2778594   -0.1749295   -3.1372401 
N     8.1289886    0.8577063   -4.5406502 
C     6.7120432    1.0200699   -4.6945284 
H     8.9091609    1.2297524   -5.1291974 
H     6.2395707    1.6203129   -5.4711584 
