48
Energy =
C     0.5262976   -0.2319955    2.1425942 
C     0.1468746   -0.8260434    0.9831873 
C     1.4162819   -0.8463246    2.9652092 
C     1.9181693   -2.0533656    2.6227410 
C     1.5458339   -2.6497279    1.4619061 
C     0.6750805   -2.0280839    0.6175652 
H    -0.5817781   -0.3277520    0.3484398 
H     2.6162116   -2.5390057    3.2959764 
H     1.9385203   -3.6347572    1.2273596 
H     0.1085389    0.7313115    2.4148144 
C     0.2291842   -2.7033611   -0.6673709 
C     1.1402572   -2.5115753   -1.9127623 
H    -0.7977613   -2.3595284   -0.9265389 
H     0.1246704   -3.7946507   -0.4779678 
C     1.2487166   -1.0813249   -2.4724597 
O     1.8198388   -0.2676582    4.1723144 
H     1.4408790    0.6595653    4.3307147 
O     0.5731017   -0.8114871   -3.6574171 
N     2.4383976   -3.2051544   -1.7796274 
H     0.5886707   -3.0298219   -2.7368015 
H     2.8158140   -3.1418449   -0.8101605 
H     2.2977563   -4.2292899   -1.9536397 
N     1.8738597    0.0399255   -1.8104155 
C     3.2533754   -0.1890631   -1.3293100 
H     1.2573299    0.3197174   -1.0213745 
C     3.7742305    0.9902813   -0.5129105 
O     4.7663579    0.7599637    0.4296347 
O     3.3858587    2.3080890   -0.7578877 
H     2.7034873    2.3656460   -1.5013034 
C     4.2189220   -0.5264242   -2.4968782 
H     3.2589973   -1.0229879   -0.6007232 
C     4.3690886    0.5969810   -3.5082385 
H     3.8874837   -1.4604529   -2.9970591 
H     5.2218195   -0.7648483   -2.0779479 
C     3.8661893    0.6457159   -4.7550947 
C     3.1158353   -0.2608906   -5.4345885 
C     2.7359603    0.0347493   -6.7102102 
C     3.1132598    1.2141619   -7.2882468 
C     3.8738021    2.1059392   -6.5935908 
C     4.2332779    1.7934708   -5.3309257 
H     2.8078995   -1.2001863   -4.9882308 
H     2.1242136   -0.6709469   -7.2672563 
H     2.8039598    1.4417549   -8.3050851 
H     4.1843207    3.0449228   -7.0386533 
N     5.0298111    2.5735793   -4.4524106 
C     5.0758652    1.7249970   -3.2981311 
H     5.4704611    3.5090139   -4.6104088 
H     5.6070182    1.9697296   -2.3779512 
