48
Energy =
C     2.8348215   -3.4358279   -1.1098579 
C     2.3016594   -2.2690092   -0.6661296 
C     3.8612935   -4.0186197   -0.4344890 
C     4.3432614   -3.4324561    0.6842065 
C     3.8172173   -2.2642711    1.1293489 
C     2.7900251   -1.6760841    0.4570045 
H     1.4937762   -1.8048561   -1.2265235 
H     5.1624780   -3.9063746    1.2129453 
H     4.2281404   -1.8014267    2.0226614 
H     2.4453763   -3.8941644   -2.0122818 
C     2.2418763   -0.3475235    0.9287641 
C     3.1040308    0.8302644    0.4125242 
H     2.2144408   -0.3516015    2.0404403 
H     1.1837060   -0.2180041    0.6047101 
C     2.7595498    1.1946480   -1.0314428 
O     4.4506732   -5.2077036   -0.8758650 
H     4.0221655   -5.5911943   -1.7117138 
O     1.7199414    2.0897948   -1.2695976 
N     2.9479690    1.9935236    1.2996933 
H     4.1761020    0.5370299    0.4300053 
H     1.9417045    2.2903109    1.3242626 
H     3.2328266    1.7483726    2.2765676 
N     3.1912018    0.3599137   -2.1208770 
C     4.6242659    0.5390188   -2.4437236 
H     2.6155220    0.6424471   -2.9508624 
C     4.9588496    1.9621571   -2.9126544 
O     4.7688451    2.3144396   -4.2443145 
O     5.4425082    2.9272181   -2.0305351 
H     5.4363281    2.6102124   -1.0732599 
C     5.0011918   -0.5171982   -3.5049104 
H     5.2430964    0.3248198   -1.5449402 
C     6.5008494   -0.6592784   -3.6460920 
H     4.5529029   -0.2525528   -4.4902141 
H     4.5588447   -1.4986994   -3.2273396 
C     7.2917355   -1.5116984   -2.9762039 
C     6.9696776   -2.4594541   -2.0594197 
C     7.9727940   -3.2097991   -1.5213220 
C     9.2706217   -2.9984812   -1.8982012 
C     9.5713999   -2.0362751   -2.8169751 
C     8.5593537   -1.3110910   -3.3384217 
H     5.9411647   -2.6288834   -1.7606324 
H     7.7358717   -3.9834560   -0.7935425 
H    10.0653455   -3.6011907   -1.4656126 
H    10.5949744   -1.8546033   -3.1264851 
N     8.6540869   -0.2671107   -4.2973401 
C     7.2750652    0.1044281   -4.4372021 
H     9.4991543    0.1232352   -4.7741090 
H     6.9117661    0.9100837   -5.0754617 
