48
Energy =
C    -1.7733425    0.2363227   -7.4917758 
C    -1.3931913   -0.1553600   -6.2492041 
C    -1.7086853    1.5480463   -7.8450103 
C    -1.2619361    2.4594215   -6.9513246 
C    -0.8807897    2.0736277   -5.7073971 
C    -0.9481667    0.7625347   -5.3473405 
H    -1.4437601   -1.2083589   -5.9845190 
H    -1.2116991    3.5018008   -7.2462033 
H    -0.5199088    2.8204539   -5.0043518 
H    -2.1270658   -0.5024023   -8.2027462 
C    -0.5069377    0.3307783   -3.9664167 
C     1.0317825    0.2591562   -3.8404218 
H    -0.9496283   -0.6542796   -3.6963472 
H    -0.9083015    1.0551032   -3.2221321 
C     1.4405783    0.0676695   -2.3891087 
O    -2.0928956    1.9847512   -9.1171792 
H    -2.4141185    1.2417457   -9.7279320 
O     1.0138318   -1.0632126   -1.6979477 
N     1.5798952   -0.8124381   -4.6909502 
H     1.4700511    1.2366436   -4.1566320 
H     1.0770122   -1.7119269   -4.4940668 
H     1.4163991   -0.5784089   -5.6989901 
N     1.8777184    1.2090220   -1.6389344 
C     3.3502472    1.3588993   -1.4676575 
H     1.4262219    1.1239505   -0.6981009 
C     3.7158180    2.8345454   -1.6097641 
O     4.2587419    3.3072703   -2.7993418 
O     3.5049022    3.7372348   -0.5683742 
H     2.9884856    3.3185508    0.1903514 
C     4.2303044    0.4760798   -2.4165320 
H     3.6179672    1.0993120   -0.4174360 
C     4.4924600   -0.9062287   -1.8520152 
H     5.2245452    0.9530920   -2.5709468 
H     3.7988619    0.4201626   -3.4404875 
C     5.3138827   -1.2073683   -0.8321509 
C     6.0899829   -0.3932084   -0.0704091 
C     6.8478360   -0.9554804    0.9144367 
C     6.8220505   -2.3075213    1.1189384 
C     6.0395262   -3.1056687    0.3382543 
C     5.2981780   -2.5253892   -0.6285545 
H     6.1168329    0.6805134   -0.2337274 
H     7.4770886   -0.3253146    1.5389973 
H     7.4294812   -2.7487673    1.9057159 
H     6.0095093   -4.1804057    0.4845702 
N     4.4322907   -3.1708090   -1.5496698 
C     3.9534045   -2.0512142   -2.3078016 
H     4.2111518   -4.1875645   -1.6584305 
H     3.2493400   -2.1288586   -3.1319942 
