48
Energy =
C     1.9639557   -2.9909137    3.2979655 
C     1.9176124   -1.8326267    2.5924888 
C     1.5429793   -4.1533835    2.7316339 
C     1.0712536   -4.1474662    1.4646964 
C     1.0219436   -2.9926280    0.7547062 
C     1.4453655   -1.8263926    1.3154974 
H     2.2725267   -0.9146394    3.0536753 
H     0.7380752   -5.0813678    1.0259269 
H     0.6509868   -3.0106333   -0.2670554 
H     2.3459256   -2.9852999    4.3131045 
C     1.4514844   -0.5529661    0.4982956 
C     2.6331290   -0.5375455   -0.5003535 
H     1.4909145    0.3487819    1.1504208 
H     0.4874521   -0.4773302   -0.0549829 
C     2.5015285    0.5458529   -1.5573529 
O     1.5896536   -5.3668005    3.4250204 
H     1.9326412   -5.2841930    4.3761367 
O     1.6333352    1.6123794   -1.3622003 
N     3.9149736   -0.4119499    0.2162552 
H     2.6120506   -1.4900729   -1.0745315 
H     3.8957997    0.4255656    0.8477464 
H     4.0770729   -1.2579615    0.8125129 
N     3.0206046    0.3222356   -2.8742687 
C     4.4870864    0.2198556   -3.0306565 
H     2.3419562    0.2326579   -3.6630337 
C     5.0746809    1.4604430   -3.6876874 
O     6.1867055    2.0620859   -3.1121222 
O     4.5845456    1.9712670   -4.8894725 
H     3.7727153    1.4652065   -5.2046003 
C     4.8340479   -1.0560495   -3.8299991 
H     4.9930557    0.1661126   -2.0380285 
C     4.3408503   -2.3032756   -3.1286165 
H     5.9358000   -1.1302560   -3.9727676 
H     4.3851076   -0.9999611   -4.8469241 
C     4.8815477   -2.8859251   -2.0463634 
C     6.0037476   -2.5636972   -1.3537354 
C     6.3087979   -3.2903925   -0.2403558 
C     5.4941006   -4.3125781    0.1624769 
C     4.3722724   -4.6181937   -0.5489233 
C     4.0976134   -3.8917074   -1.6523305 
H     6.6439079   -1.7429031   -1.6641026 
H     7.2007192   -3.0502478    0.3337097 
H     5.7395446   -4.8824395    1.0554746 
H     3.7111872   -5.4199882   -0.2369914 
N     2.9675879   -4.0181921   -2.5032375 
C     3.1990268   -2.9491125   -3.4275848 
H     2.1664652   -4.6880298   -2.4577329 
H     2.5141359   -2.6762226   -4.2244031 
