48
Energy =
C     3.2668941    4.3924796   -0.3257464 
C     2.0746653    3.8308984   -0.0001335 
C     4.4296378    3.7979225    0.0538066 
C     4.3905332    2.6430010    0.7551577 
C     3.2026795    2.0689788    1.0708001 
C     2.0346495    2.6625502    0.6986656 
H     1.1542440    4.3148581   -0.3170380 
H     5.3237631    2.1754380    1.0479698 
H     3.1964289    1.1250422    1.6105227 
H     3.2878297    5.3145939   -0.8968930 
C     0.7068394    2.0072745    1.0179075 
C     0.0386999    1.3937953   -0.2348711 
H     0.0293584    2.7680174    1.4636336 
H     0.8384837    1.2134616    1.7877253 
C     0.9450928    0.4003023   -0.9484601 
O     5.6748076    4.3488355   -0.2647321 
H     5.6204663    5.1704448   -0.8573689 
O     1.6004560   -0.6002066   -0.2347237 
N    -1.2367064    0.7637984    0.1379976 
H    -0.1763138    2.2105710   -0.9622246 
H    -1.0641503   -0.0075317    0.8277442 
H    -1.8611269    1.4675232    0.5978142 
N     1.2444012    0.5742846   -2.3384592 
C     2.5658049    1.1405715   -2.6631202 
H     0.5262267    0.3100013   -3.0499139 
C     2.4740755    2.1316509   -3.8146248 
O     2.8207585    3.4596735   -3.5945413 
O     2.0559705    1.7508217   -5.0899203 
H     1.8183072    0.7706250   -5.1268115 
C     3.5657728   -0.0137219   -2.9401855 
H     2.9295117    1.7601470   -1.8123910 
C     4.8030280    0.1140009   -2.0804441 
H     3.8671039   -0.0540499   -4.0103189 
H     3.0845288   -0.9966131   -2.7262325 
C     5.8367295    0.9456266   -2.2798925 
C     6.0620821    1.8269056   -3.2872890 
C     7.1912259    2.5898199   -3.2392318 
C     8.0663198    2.4638158   -2.1958351 
C     7.8177492    1.5729062   -1.1941914 
C     6.6963234    0.8259031   -1.2670474 
H     5.3641223    1.9365361   -4.1120026 
H     7.3906999    3.3085045   -4.0302051 
H     8.9579732    3.0840454   -2.1590092 
H     8.4950352    1.4709473   -0.3535756 
N     6.2367850   -0.1300355   -0.3206101 
C     4.9959117   -0.5317849   -0.9170673 
H     6.6775165   -0.4420412    0.5747366 
H     4.2926561   -1.2324042   -0.4690802 
