48
Energy =
C    -1.6779396    1.2147012    2.3472494 
C    -0.3505126    1.4370535    2.5193501 
C    -2.2981597    1.6276621    1.2098194 
C    -1.5847374    2.2624100    0.2522280 
C    -0.2567516    2.4859418    0.4180773 
C     0.3705411    2.0716907    1.5539076 
H     0.1321114    1.0997114    3.4324191 
H    -2.0911957    2.5893306   -0.6494955 
H     0.2974537    2.9986601   -0.3651877 
H    -2.2412826    0.7042557    3.1208044 
C     1.8562966    2.3047364    1.7363340 
C     2.6731250    0.9909975    1.6911764 
H     2.0238973    2.8082967    2.7133043 
H     2.2368675    3.0056245    0.9575284 
C     2.4243458    0.1847588    0.4234145 
O    -3.6645615    1.4143277    1.0007020 
H    -4.1269307    0.9261443    1.7599839 
O     1.8005032   -1.0534241    0.5159503 
N     4.1055141    1.2918897    1.8691501 
H     2.3421773    0.3273625    2.5252886 
H     4.3886619    2.1155633    1.2846141 
H     4.2753951    1.5694786    2.8650219 
N     2.5276173    0.7963612   -0.8649620 
C     3.8733765    0.9883785   -1.4281071 
H     1.6510296    1.0416824   -1.3741860 
C     4.1617195    2.4703502   -1.5998992 
O     3.1278353    3.3407924   -1.9242631 
O     5.4527462    2.9827225   -1.4724799 
H     6.1412510    2.2671748   -1.2927102 
C     3.9727646    0.2474242   -2.7762556 
H     4.6511942    0.5893688   -0.7344896 
C     3.9530302   -1.2528752   -2.5792520 
H     4.9203899    0.5255345   -3.2910060 
H     3.1485845    0.5662208   -3.4517859 
C     2.8802082   -2.0621793   -2.5862010 
C     1.5707157   -1.7769526   -2.8061770 
C     0.6658561   -2.7959887   -2.7485581 
C     1.0780763   -4.0712101   -2.4776037 
C     2.3978987   -4.3350769   -2.2621119 
C     3.2736477   -3.3100638   -2.3238265 
H     1.2382435   -0.7667775   -3.0157638 
H    -0.3896134   -2.5917871   -2.9109133 
H     0.3500588   -4.8768368   -2.4270744 
H     2.7410039   -5.3398246   -2.0405827 
N     4.6792837   -3.3703514   -2.1259808 
C     5.0400421   -1.9948376   -2.3015857 
H     5.2831744   -4.1981565   -1.9167908 
H     6.0521595   -1.6096815   -2.2028849 
