48
Energy =
C    -1.0223090    5.3499044   -2.1791957 
C    -0.3547183    4.4374485   -1.4262076 
C    -0.8026434    6.6785314   -1.9961221 
C     0.0850818    7.0857885   -1.0616568 
C     0.7568098    6.1782366   -0.3088570 
C     0.5425320    4.8444277   -0.4868066 
H    -0.5379669    3.3778720   -1.5857910 
H     0.2518623    8.1489002   -0.9255678 
H     1.4662364    6.5300158    0.4354043 
H    -1.7303447    5.0153894   -2.9302119 
C     1.3017182    3.8315281    0.3530640 
C     2.5900218    3.2636599   -0.3127648 
H     0.6224606    2.9949793    0.6325875 
H     1.5880071    4.3042204    1.3191789 
C     2.3350627    2.0399554   -1.1842991 
O    -1.4755257    7.6435014   -2.7518200 
H    -2.1072226    7.2590461   -3.4457793 
O     1.2935447    2.0254921   -2.1032532 
N     3.3322252    4.2972950   -1.0484358 
H     3.2493800    2.9009007    0.5076126 
H     2.8218616    4.5533485   -1.9286693 
H     3.4441392    5.1568914   -0.4650243 
N     3.1727275    0.8808922   -1.0733590 
C     4.2272075    0.6724769   -2.0868217 
H     3.0729048    0.2604661   -0.2407381 
C     4.9701675    1.9609465   -2.4564506 
O     4.6660458    2.6377981   -3.6331698 
O     5.9613067    2.4827525   -1.6224419 
H     6.0418229    1.9587437   -0.7643156 
C     3.6273102   -0.0484177   -3.3138578 
H     5.0075741    0.0087425   -1.6520007 
C     3.3327675   -1.5020359   -3.0102518 
H     4.3417115   -0.0055252   -4.1663575 
H     2.7107409    0.4815582   -3.6565661 
C     2.1709221   -2.0316944   -2.5928649 
C     0.9682842   -1.4407363   -2.3764613 
C    -0.0677104   -2.2145907   -1.9426680 
C     0.1111173   -3.5538678   -1.7334868 
C     1.3274039   -4.1270940   -1.9574554 
C     2.3361762   -3.3400641   -2.3872925 
H     0.8228138   -0.3797134   -2.5449772 
H    -1.0404384   -1.7629630   -1.7648006 
H    -0.7194561   -4.1643331   -1.3887975 
H     1.4868500   -5.1877425   -1.7966589 
N     3.6704941   -3.7357092   -2.6708217 
C     4.2494376   -2.4847888   -3.0625971 
H     4.1098148   -4.6821996   -2.6057055 
H     5.2904299   -2.3523629   -3.3483344 
