48
Energy =
C    -0.6018345    6.6347927   -1.8482738 
C    -0.8122737    5.3134423   -2.0756824 
C     0.6354699    7.0806761   -1.5026194 
C     1.6544657    6.1996819   -1.3873476 
C     1.4507489    4.8793969   -1.6206935 
C     0.2138539    4.4240331   -1.9618428 
H    -1.8083590    4.9736916   -2.3458501 
H     2.6349922    6.5626437   -1.0995028 
H     2.2814780    4.1885362   -1.5143039 
H    -1.4262493    7.3334327   -1.9415032 
C    -0.0245294    2.9452132   -2.2059928 
C    -0.3398603    2.1325834   -0.9237233 
H     0.8636123    2.5048507   -2.7089070 
H    -0.8658766    2.8186576   -2.9218546 
C     0.8866318    1.9221637   -0.0463858 
O     0.8853587    8.4361657   -1.2639504 
H     0.0667793    9.0276769   -1.3534963 
O     1.3805812    2.8656987    0.5891702 
N    -1.4560850    2.7200290   -0.1658317 
H    -0.6564205    1.1169706   -1.2509293 
H    -1.1439574    3.6231918    0.2671271 
H    -2.2522307    2.9334687   -0.8091787 
N     1.6124566    0.6823727   -0.1039205 
C     3.0766942    0.8369036   -0.0911727 
H     1.1250286   -0.2354810   -0.2147650 
C     3.4485900    2.2365302    0.3979879 
O     4.7670902    2.6757239    0.3307191 
O     2.5669013    2.9986176    0.8226768 
H     1.8649447    2.6372201    1.4374641 
C     3.6250171    0.5711149   -1.5070441 
H     3.5182284    0.1198776    0.6343945 
C     3.3956434   -0.8604483   -1.9322277 
H     4.7151740    0.7937301   -1.5451533 
H     3.1354444    1.2630556   -2.2269304 
C     4.1159897   -1.9318480   -1.5669236 
C     5.2163040   -2.0120026   -0.7755737 
C     5.7644069   -3.2409253   -0.5516369 
C     5.2098195   -4.3576254   -1.1141242 
C     4.1031239   -4.2521573   -1.9037434 
C     3.5804725   -3.0253050   -2.1113342 
H     5.6559528   -1.1259399   -0.3266723 
H     6.6461726   -3.3330852    0.0781809 
H     5.6517922   -5.3337173   -0.9300247 
H     3.6491545   -5.1278879   -2.3549990 
N     2.4347340   -2.6982308   -2.8855721 
C     2.3820673   -1.2761758   -2.7113438 
H     1.8028782   -3.3281631   -3.4311658 
H     1.6144509   -0.6321013   -3.1341292 
