48
Energy =
C     2.5925618    7.1991118   -3.6045325 
C     3.4299086    6.6867074   -2.6639163 
C     1.5532585    6.4556531   -4.0759744 
C     1.3610229    5.2019353   -3.6069365 
C     2.1978860    4.6964689   -2.6692684 
C     3.2279153    5.4306764   -2.1780438 
H     4.2622106    7.2885098   -2.3076253 
H     0.5374491    4.6092754   -3.9909041 
H     2.1108370    3.6176914   -2.2017619 
H     2.7586795    8.2026827   -3.9822319 
C     4.1839174    4.8247040   -1.1534709 
C     3.5112177    3.8484147   -0.1365115 
H     4.6634599    5.6471306   -0.5794707 
H     5.0076913    4.3011272   -1.6957944 
C     3.0009489    2.5489375   -0.7877211 
O     0.6723641    6.9552991   -5.0385701 
H     0.8924170    7.8937227   -5.3542774 
O     2.0160280    2.6065812   -1.7745473 
N     4.4343083    3.5750289    0.9781835 
H     2.5998879    4.3383946    0.2798725 
H     5.3501953    3.2218951    0.6070815 
H     4.6358660    4.4595698    1.5020032 
N     3.5672921    1.2775086   -0.4557044 
C     4.4785503    0.6474768   -1.4304847 
H     3.3297312    0.8401505    0.4600768 
C     5.5041423    1.6400830   -1.9704637 
O     5.2372940    2.3592651   -3.1290207 
O     6.6565740    1.9607644   -1.2557840 
H     6.7722242    1.3710145   -0.4440551 
C     3.6697441   -0.0168501   -2.5619945 
H     5.0542964   -0.1498921   -0.9119205 
C     2.7401675   -1.0818097   -2.0288033 
H     4.3597617   -0.4585555   -3.3128583 
H     3.0836715    0.7571718   -3.1063911 
C     3.0570750   -2.3502754   -1.7289098 
C     4.2406713   -3.0039490   -1.8516144 
C     4.3026097   -4.3097506   -1.4617071 
C     3.1942948   -4.9337302   -0.9584659 
C     2.0172995   -4.2552144   -0.8412414 
C     1.9809656   -2.9650808   -1.2358127 
H     5.1212718   -2.5076442   -2.2485618 
H     5.2380064   -4.8569128   -1.5510396 
H     3.2516235   -5.9742746   -0.6492068 
H     1.1299541   -4.7335570   -0.4409790 
N     0.8694416   -2.0815371   -1.1855404 
C     1.4501860   -0.8798228   -1.7106005 
H    -0.1057858   -2.2569530   -0.8522903 
H     0.9260821    0.0695103   -1.8107557 
