48
Energy =
C    -2.9763522    4.7978479   -2.5392714 
C    -1.7581255    4.5487566   -3.0826828 
C    -3.1007616    4.9931462   -1.1994461 
C    -2.0030599    4.9390984   -0.4121356 
C    -0.7820873    4.6939655   -0.9502078 
C    -0.6509753    4.4892562   -2.2904811 
H    -1.6789635    4.3983471   -4.1559330 
H    -2.1142901    5.0923279    0.6556608 
H     0.0861141    4.6522536   -0.2961462 
H    -3.8510615    4.8414923   -3.1792880 
C     0.7111870    4.2149522   -2.8986881 
C     1.0943418    2.7087229   -2.9938604 
H     1.4914639    4.7650795   -2.3214061 
H     0.7539306    4.6568947   -3.9175474 
C     1.4860987    2.0960555   -1.6545142 
O    -4.3417364    5.2534081   -0.6088229 
H    -5.1150578    5.2698594   -1.2645069 
O     0.5816987    2.1272750   -0.5996760 
N     0.0457453    1.9197324   -3.6713938 
H     2.0329274    2.6453884   -3.5964954 
H    -0.8067301    1.8656410   -3.0606653 
H    -0.2301680    2.3796639   -4.5701607 
N     2.4978362    1.0805078   -1.6200427 
C     3.9199910    1.4423600   -1.4124955 
H     2.2049250    0.1095799   -1.8668195 
C     4.2192254    2.9474644   -1.3378024 
O     3.7010192    3.8176736   -2.2879632 
O     5.0739434    3.4780182   -0.3749293 
H     5.4258485    2.7797497    0.2607959 
C     4.7991125    0.7285649   -2.4646355 
H     4.2062405    1.0297705   -0.4214386 
C     4.4272762    1.0842619   -3.8901127 
H     4.7012936   -0.3714364   -2.3309353 
H     5.8712510    0.9622947   -2.2835968 
C     4.9222186    2.0876924   -4.6347918 
C     5.8648260    3.0173092   -4.3332171 
C     6.1889726    3.9442080   -5.2798441 
C     5.5755497    3.9276077   -6.5016770 
C     4.6307236    2.9862429   -6.7825919 
C     4.3258721    2.0816332   -5.8286057 
H     6.3391097    3.0461152   -3.3569056 
H     6.9322804    4.7053550   -5.0561540 
H     5.8382789    4.6714549   -7.2493400 
H     4.1324831    2.9612580   -7.7455917 
N     3.3725832    1.0325354   -5.9164606 
C     3.5031874    0.4343580   -4.6207245 
H     2.7425301    0.7733176   -6.7098124 
H     2.9236721   -0.4194926   -4.2783731 
