48
Energy =
C     1.0369487   -1.1941294    2.3408281 
C     1.8867528   -0.2882601    1.7940785 
C    -0.2485120   -0.8464289    2.6157840 
C    -0.6746186    0.4067557    2.3415032 
C     0.1700242    1.3160265    1.7941366 
C     1.4586233    0.9737241    1.5150464 
H     2.9102145   -0.5820713    1.5830796 
H    -1.7016247    0.6719714    2.5648987 
H    -0.1944131    2.3166679    1.5794107 
H     1.3882272   -2.1972376    2.5568276 
C     2.4014279    1.9824067    0.8908399 
C     2.4357805    1.9185995   -0.6592077 
H     3.4259846    1.8328843    1.2979691 
H     2.1182566    3.0105519    1.2079836 
C     3.0047043    0.5998107   -1.1851998 
O    -1.1497511   -1.7549744    3.1804675 
H    -0.7556385   -2.6745907    3.3458421 
O     2.1371957   -0.3771143   -1.6637323 
N     1.1061623    2.2179846   -1.2265912 
H     3.1311059    2.7024109   -1.0266267 
H     0.4397749    1.4353696   -1.0188599 
H     0.7155968    3.0897299   -0.7985774 
N     4.3623100    0.1992121   -0.9284907 
C     5.5202174    1.0127376   -1.3582326 
H     4.4956220   -0.6805388   -0.3829112 
C     5.6775018    2.2947442   -0.5448863 
O     5.4834060    3.5378142   -1.1276027 
O     5.9648422    2.2486848    0.8170124 
H     6.1007730    1.3025970    1.1419548 
C     5.6283972    1.1614558   -2.9021671 
H     6.4300875    0.4328103   -1.0839717 
C     4.4452851    1.7989705   -3.6109192 
H     5.8216554    0.1579691   -3.3371191 
H     6.5389801    1.7579870   -3.1352542 
C     3.4605946    1.1619665   -4.2711150 
C     3.2444712   -0.1680553   -4.4465317 
C     2.1598794   -0.5598489   -5.1742099 
C     1.3200239    0.3711140   -5.7183527 
C     1.5598770    1.7002727   -5.5377927 
C     2.6365780    2.0629866   -4.8097801 
H     3.8965128   -0.9136750   -4.0029810 
H     1.9573744   -1.6188838   -5.3127538 
H     0.4555463    0.0498116   -6.2934241 
H     0.9046650    2.4517187   -5.9644171 
N     3.0709868    3.3839463   -4.5260666 
C     4.2558302    3.1241396   -3.7602099 
H     2.6452724    4.2951337   -4.8133154 
H     4.9333292    3.8968342   -3.4001131 
