48
Energy =
C    -0.8759111   -1.5147971   -1.5482692 
C    -1.1494869   -1.1753441   -2.8437893 
C     0.3950671   -1.8891611   -1.1961594 
C     1.3518717   -1.9008329   -2.1218953 
C     1.1070045   -1.5730121   -3.3628562 
C    -0.1452851   -1.2101935   -3.7782941 
H    -2.1554250   -0.8815795   -3.1286326 
H     2.3520249   -2.2000013   -1.9594685 
H     2.0420402   -1.6162641   -3.8725721 
H    -1.6628820   -1.4948906   -0.8007395 
C    -0.4361604   -0.8978896   -5.2389374 
C     0.3240887    0.3217385   -5.8332432 
H    -1.5256890   -0.7153310   -5.3720148 
H    -0.2163191   -1.8081350   -5.8384528 
C     0.5853421    1.4172904   -4.8077079 
O     0.7554589   -2.2603239    0.0957214 
H    -0.0161058   -2.2453692    0.7536505 
O    -0.4621798    1.8488842   -3.9946393 
N     1.5522316   -0.0971176   -6.5320425 
H    -0.3430694    0.7868816   -6.5929226 
H     2.0551175   -0.8033011   -5.9438019 
H     1.2825243   -0.5983822   -7.4105026 
N     1.8013646    2.1928129   -4.8354691 
C     2.8926556    1.4847953   -4.1200405 
H     1.5929589    3.1217454   -4.3975676 
C     3.1498558    2.0386299   -2.7211111 
O     4.2361685    2.8768720   -2.4892914 
O     2.3134977    1.7184108   -1.6519147 
H     1.5521442    1.1151099   -1.9381822 
C     4.1545941    1.4846015   -5.0035527 
H     2.6370900    0.4251199   -3.9611495 
C     5.1837612    0.4858043   -4.5093781 
H     4.5672988    2.5121583   -5.0813278 
H     3.8680932    1.1936322   -6.0385161 
C     6.3897475    0.7528951   -3.9790837 
C     7.0064666    1.9441490   -3.7618292 
C     8.2446738    1.9412465   -3.1904444 
C     8.8459598    0.7610483   -2.8487594 
C     8.2111048   -0.4239106   -3.0760468 
C     6.9843472   -0.3946642   -3.6423017 
H     6.5405361    2.8879087   -4.0262326 
H     8.7537740    2.8845956   -3.0048221 
H     9.8340552    0.7688758   -2.3924720 
H     8.6747265   -1.3695222   -2.8088626 
N     6.1559285   -1.5053861   -3.9530901 
C     5.0068010   -0.8507978   -4.5054944 
H     6.3100021   -2.5327135   -3.8201419 
H     4.1100162   -1.3709983   -4.8436752 
