48
 energy: -9.103452603884 gnorm: 0.000568442530 xtb: 6.6.0 (2ccbbd7)
C            2.49303801506245        1.47739613619518       -7.84711705009504
C            2.61133310694535        0.98851303188214       -6.56880175460051
C            1.48779887608293        1.01038805915175       -8.69451740737562
C            0.60821147495660        0.04409324894973       -8.20632901279792
C            0.73317165112438       -0.43921444610058       -6.92587738635553
C            1.74164542803191        0.01888570452697       -6.09116074520378
H            3.37054970160693        1.37663921503538       -5.91037250755391
H           -0.16979599517218       -0.31208205022932       -8.85787788288215
H            0.04591974201276       -1.18236836735320       -6.55980872119467
H            3.17201880759716        2.23152156053987       -8.20321335851052
C            1.87377736908370       -0.49559976824421       -4.69736287187107
C            1.20752655580244        0.36509589606233       -3.62039632569854
H            3.03393413962336       -0.55938680824109       -4.38127793980701
H            1.52556229524451       -1.53181935727000       -4.63498741726212
C            1.70525258799666       -0.02589673383389       -2.23574101318801
O            1.34135688040733        1.47842988414962       -9.98588695980571
H            2.02480415787505        2.15618338107516      -10.17733422913589
O            1.08282850570140       -0.90749742846518       -1.67131040833936
N            1.31297654302884        1.79540468527138       -3.86451370546362
H            0.12693891682524        0.14350458289512       -3.61976115404425
H            2.29671546302577        2.02931221281642       -3.94831891481195
H            0.87429308539912        2.04888823389444       -4.74030959574519
N            2.81264241145892        0.54977185006542       -1.60003399629050
C            4.14931919404122        0.77573993974502       -2.21377163141253
H            2.93345255961604        0.26771517270919       -0.62886846236129
C            4.17680116558563        2.07174004638167       -2.99501861578588
O            4.25351591856833        2.02693251005612       -4.20412376782636
O            4.06765933544233        3.21167964228809       -2.26962771988242
H            3.94086418891125        3.00990316888271       -1.31776399883988
C            4.61468703196420       -0.40376102189339       -3.05922372434062
H            4.87551417228961        0.89370625280523       -1.39494721315865
C            4.76888377691985       -1.68023787748624       -2.30957231661690
H            5.54002761355023       -0.15017938918776       -3.58428573601000
H            3.78766083131508       -0.53800178852357       -3.92040769538678
C            5.97039487930245       -2.43750960183004       -2.16717158496523
C            7.28554245935959       -2.24286728133235       -2.62369496148505
C            8.23359849189763       -3.17644597656669       -2.30799690978583
C            7.91292076349537       -4.31079731184716       -1.54471751321558
C            6.64018987212665       -4.52118703274614       -1.09004289157500
C            5.65383647578654       -3.57735715242776       -1.40261967608190
H            7.52995359885570       -1.37273229618966       -3.20625956201276
H            9.24646653365044       -3.04117651634726       -2.64957271926501
H            8.68445026690026       -5.02650126281287       -1.31389091238154
H            6.38492526375794       -5.38655764244431       -0.50506514935986
N            4.30744702666284       -3.50940861056492       -1.09259701047545
C            3.78525065371201       -2.36612419405952       -1.63995282595685
H            3.79817396624572       -4.19943762184337       -0.53742743832914
H            2.75627373468054       -2.05822939262332       -1.53949078251052
