48
 energy: -9.066954328247 gnorm: 0.000818507443 xtb: 6.6.0 (2ccbbd7)
C           -3.26968082512076       -2.30239418813202        0.17461144599016
C           -1.99390521991741       -2.10696764950615       -0.29946817034769
C           -3.63929355693637       -1.83005850341919        1.43442248490910
C           -2.68350212483678       -1.15559572723546        2.19364169481342
C           -1.41024278816456       -0.96386856401976        1.71252913536162
C           -1.04456236343154       -1.44107663920241        0.46275216268545
H           -1.72087235729581       -2.47225712298022       -1.27467624832953
H           -2.96886148301350       -0.78897169782642        3.16340984003011
H           -0.68256879955611       -0.43751782688568        2.30613650904233
H           -3.99676003976923       -2.82239518367513       -0.42304900244997
C            0.33269685136741       -1.19790074946706       -0.06989461326903
C            0.53279325743379        0.22308278774278       -0.60168150077228
H            0.55222336690403       -1.90485968410302       -0.87535435078847
H            1.07407206545383       -1.40676076046920        0.70826404056377
C            1.94091176358634        0.42249921916455       -1.11450625508006
O           -4.91305460427120       -2.01019689611212        1.94004886590410
H           -5.46386217438284       -2.50224526456628        1.29321028976179
O            2.63344311813416       -0.54082783726002       -1.36824240325794
N           -0.40321836888125        0.55599514155852       -1.66653258469643
H            0.36709457835321        0.93730240486900        0.21958953651283
H           -0.22233161360601       -0.04369593442226       -2.46108257381665
H           -1.35393633059419        0.38178599264690       -1.36676296224543
N            2.32528236032263        1.72832120853169       -1.30703071021352
C            3.61536505967574        2.13387765238437       -1.86962309748333
H            1.75106680380662        2.49370658313947       -0.95009201700764
C            3.48140360051710        3.52217542310034       -2.42470662375492
O            4.53881306658113        4.38055841619553       -2.35424682886457
O            2.28002107128170        3.84830364228283       -3.01339100062174
H            1.65245172407978        3.09096561154190       -2.93874209166744
C            4.14508032278225        1.17350600131205       -2.95643548976727
H            4.32707771331114        2.15032294808256       -1.03177632983845
C            5.62179170855863        0.94393303678814       -2.90862317187918
H            3.86191384689255        1.55013819706398       -3.94447290096998
H            3.64405322238530        0.20674606032601       -2.85539466149515
C            6.64901943820047        1.90948402119519       -2.68790646888696
C            6.62949080202470        3.28561317369619       -2.43131765947325
C            7.80698468845078        3.94683554060759       -2.25048828213019
C            9.03500924784492        3.26762936141969       -2.31518912286721
C            9.08543517751588        1.92250298675266       -2.56079042812965
C            7.88226692702972        1.22964835387837       -2.74891076221827
H            5.54363641482865        3.86039775514874       -2.37697383103141
H            7.79284746613600        5.00620793598637       -2.05568175630838
H            9.94980967224037        3.81740709055283       -2.16809941322328
H           10.01955111383214        1.39243571186194       -2.61080481245739
N            7.60855713288208       -0.10239649067491       -3.00114227938990
C            6.24832291613653       -0.26387635512211       -3.09561682226471
H            8.31395891484255       -0.83632267039831       -3.08795406317975
H            5.75108344467067       -1.20245447414743       -3.28072480658301
