48
Energy =
C     0.7357303   -5.0721898    0.3784241 
C     0.6613052   -3.7175234    0.3496491 
C     1.4524507   -5.6968775    1.3507684 
C     2.0898481   -4.9601035    2.2888043 
C     2.0187986   -3.6050093    2.2650910 
C     1.3004366   -2.9753297    1.2952242 
H     0.0856523   -3.2320766   -0.4343226 
H     2.6584854   -5.4705006    3.0583653 
H     2.5421172   -3.0315304    3.0255726 
H     0.2212802   -5.6542129   -0.3785309 
C     1.2320097   -1.4650682    1.2497835 
C     2.1864554   -0.8638139    0.1891445 
H     1.4533279   -1.0242464    2.2476668 
H     0.1848546   -1.1618084    1.0216502 
C     1.9516051    0.6282126   -0.0038402 
O     1.5518793   -7.0909196    1.4077025 
H     1.0398325   -7.5702121    0.6752359 
O     1.1165134    1.3304297    0.8563138 
N     3.5910430   -1.1245521    0.5483811 
H     1.9647405   -1.3306899   -0.7974424 
H     3.7720341   -0.8058396    1.5304037 
H     3.7786701   -2.1542349    0.5133870 
N     2.3620687    1.2748963   -1.2121904 
C     3.8077539    1.5135609   -1.4007698 
H     1.6426890    1.4693744   -1.9451836 
C     4.1270777    2.9788407   -1.6946519 
O     5.4015921    3.3139816   -2.1338013 
O     3.2333105    4.0165733   -1.4315170 
H     2.4158435    3.6943143   -0.9338357 
C     4.3596664    0.5444147   -2.4775080 
H     4.3631577    1.3145934   -0.4538767 
C     3.6124528    0.6098861   -3.7962719 
H     4.2905139   -0.4930705   -2.0830136 
H     5.4445368    0.7286376   -2.6384355 
C     3.9153054    1.3492743   -4.8781932 
C     4.9579165    2.1902025   -5.1025692 
C     5.0337320    2.8260026   -6.3071012 
C     4.0818234    2.6091798   -7.2638150 
C     3.0495132    1.7529894   -7.0226967 
C     2.9943985    1.1388190   -5.8222677 
H     5.7237886    2.3592882   -4.3541199 
H     5.8559734    3.5099811   -6.5058053 
H     4.1489360    3.1205863   -8.2210511 
H     2.2879769    1.5661244   -7.7723455 
N     2.0152874    0.2094274   -5.3823096 
C     2.4924952   -0.0862083   -4.0644554 
H     1.1760521   -0.1578786   -5.8873961 
H     2.0060902   -0.7722116   -3.3755526 
