48
Energy =
C    -3.3469052   -0.9983151    1.1913102 
C    -2.0254560   -0.6928779    1.2430351 
C    -3.8192863   -1.8283667    0.2230202 
C    -2.9648541   -2.3469202   -0.6880977 
C    -1.6428027   -2.0453774   -0.6411367 
C    -1.1647896   -1.2184197    0.3290106 
H    -1.6614315   -0.0257078    2.0207649 
H    -3.3545633   -3.0051577   -1.4566571 
H    -0.9733667   -2.4669357   -1.3866247 
H    -4.0248719   -0.5761708    1.9252479 
C     0.3036030   -0.8637274    0.3748446 
C     0.5956924    0.5278977   -0.2354351 
H     0.9062161   -1.6361039   -0.1472624 
H     0.6476784   -0.8867000    1.4347794 
C     2.0614570    0.8927224   -0.0576158 
O    -5.1748864   -2.1625057    0.1403214 
H    -5.7492241   -1.7355171    0.8590086 
O     2.5877181    0.8967592    1.2300674 
N     0.1848113    0.5742753   -1.6517914 
H     0.0406933    1.3070368    0.3387100 
H     0.5331980   -0.2744767   -2.1542918 
H    -0.8611988    0.5577771   -1.7138254 
N     2.7801409    1.5786528   -1.0925029 
C     4.2304648    1.3195418   -1.1934913 
H     2.2487081    2.1947910   -1.7478059 
C     4.9910304    2.5793686   -1.5830586 
O     6.0445893    3.0065105   -0.7851376 
O     4.7017933    3.2938811   -2.7474545 
H     3.9521928    2.8747518   -3.2749044 
C     4.4997968    0.1747673   -2.1978743 
H     4.6482933    1.0498280   -0.1936066 
C     3.9029036   -1.1467276   -1.7537783 
H     5.5987322    0.0316513   -2.3102700 
H     4.1181139    0.4676888   -3.1964894 
C     3.0172863   -1.9087447   -2.4215432 
C     2.4099101   -1.7043555   -3.6207964 
C     1.5231431   -2.6392792   -4.0679043 
C     1.2607193   -3.7548689   -3.3233156 
C     1.8853350   -3.9443024   -2.1274112 
C     2.7596140   -3.0067178   -1.7064217 
H     2.6053286   -0.8197961   -4.2174040 
H     1.0226749   -2.4963422   -5.0231063 
H     0.5538013   -4.4962386   -3.6883312 
H     1.6896842   -4.8248921   -1.5245440 
N     3.4966120   -3.0104771   -0.4933902 
C     4.2152149   -1.7756771   -0.6052341 
H     3.5105858   -3.7186230    0.2766789 
H     4.9155693   -1.4059087    0.1408573 
