48
Energy =
C     2.0073742    0.8871918    3.3088833 
C     1.3043502    0.1568452    2.4049683 
C     2.8276856    0.2681217    4.1984905 
C     2.9415727   -1.0786430    4.1758701 
C     2.2495572   -1.8132669    3.2686608 
C     1.4248258   -1.1999053    2.3748736 
H     0.6561501    0.6698171    1.6954444 
H     3.6010031   -1.5597334    4.8895425 
H     2.3669162   -2.8934611    3.2610210 
H     1.9200132    1.9688611    3.3114668 
C     0.6732000   -2.0215456    1.3432454 
C     1.2969365   -1.9675233   -0.0776815 
H    -0.3836053   -1.6727241    1.2968604 
H     0.6167085   -3.0843047    1.6652018 
C     1.1309358   -0.6030506   -0.7367335 
O     3.5611671    0.9898015    5.1458365 
H     3.4704087    1.9955510    5.0511769 
O    -0.0588786    0.0929295   -0.5419218 
N     2.6973980   -2.4290069   -0.0530158 
H     0.7114686   -2.6542860   -0.7303456 
H     3.2578329   -1.8470993    0.6133380 
H     2.7272347   -3.4118770    0.3049154 
N     1.9410062   -0.2072119   -1.8535143 
C     3.1820800    0.4873452   -1.4265663 
H     1.3437694    0.4239868   -2.4360205 
C     3.0039460    1.5177436   -0.3040740 
O     3.9606729    1.5832851    0.6977925 
O     1.9809362    2.4633936   -0.2960544 
H     1.2688111    2.2462441   -0.9780000 
C     3.8440082    1.1277676   -2.6652899 
H     3.8853812   -0.2749787   -1.0204131 
C     5.2738796    1.5399947   -2.3843477 
H     3.2538717    2.0103160   -2.9998935 
H     3.8250166    0.4054087   -3.5109715 
C     6.3693582    0.7747357   -2.5121201 
C     6.4898171   -0.5096776   -2.9369353 
C     7.7328619   -1.0704507   -2.9595378 
C     8.8233922   -0.3500907   -2.5570795 
C     8.6771913    0.9354610   -2.1273913 
C     7.4379332    1.4695798   -2.1182078 
H     5.6247577   -1.0891980   -3.2461921 
H     7.8562412   -2.0976845   -3.2942478 
H     9.8101157   -0.8061359   -2.5735600 
H     9.5303848    1.5171948   -1.7951940 
N     7.0676309    2.7716537   -1.6880051 
C     5.6461499    2.7304725   -1.8799164 
H     7.6722458    3.5501626   -1.3380221 
H     4.9595812    3.5275299   -1.5950263 
