48
Energy =
C     0.8534626    4.4656447   -4.2567325 
C     0.6760343    3.9348389   -3.0180835 
C     0.1820087    3.9540772   -5.3225931 
C    -0.6670909    2.9187661   -5.1425796 
C    -0.8397685    2.3769992   -3.9114921 
C    -0.1689673    2.8828060   -2.8408504 
H     1.2436186    4.3326680   -2.1754209 
H    -1.1983756    2.5218123   -6.0001070 
H    -1.5131563    1.5322814   -3.7915534 
H     1.5479809    5.2861988   -4.4001997 
C    -0.3270475    2.2414843   -1.4813636 
C     0.6253289    1.0334494   -1.3087093 
H    -1.3824417    1.9100737   -1.3635320 
H    -0.1550069    2.9842999   -0.6687886 
C     2.0812287    1.4545072   -1.1343553 
O     0.3560804    4.4603550   -6.6151358 
H     0.9948579    5.2474553   -6.6659920 
O     2.3695374    2.5349059   -0.3055241 
N     0.1866564    0.2134611   -0.1690450 
H     0.5823941    0.4055588   -2.2269650 
H     0.1907694    0.7957292    0.7040865 
H    -0.7935031   -0.1207715   -0.3228816 
N     3.1216464    0.4974464   -1.3936347 
C     4.3972947    0.9043396   -2.0317501 
H     2.8815193   -0.5143978   -1.2893768 
C     4.6330331    2.4174653   -2.1938654 
O     5.7972337    2.9721820   -1.6744774 
O     3.7777520    3.2499795   -2.9178958 
H     3.0189676    2.7207354   -3.3091014 
C     4.6310763    0.0889561   -3.3299333 
H     5.2031868    0.5947739   -1.3287633 
C     3.6392482    0.4025305   -4.4284902 
H     4.5690029   -0.9965019   -3.0922878 
H     5.6686740    0.2534331   -3.6941042 
C     3.7846112    1.2994949   -5.4183899 
C     4.8298390    2.1176878   -5.7072055 
C     4.6981320    2.9985738   -6.7397596 
C     3.5340541    3.0566364   -7.4535614 
C     2.4966929    2.2278684   -7.1423757 
C     2.6571926    1.3535182   -6.1287155 
H     5.7437845    2.0999740   -5.1217519 
H     5.5161603    3.6726595   -6.9822521 
H     3.4269934    3.7801778   -8.2586909 
H     1.5489605    2.2902243   -7.6676296 
N     1.6936066    0.4430157   -5.6210277 
C     2.4094618   -0.1308441   -4.5204789 
H     0.7229086    0.2518919   -5.9565267 
H     2.0020445   -0.8777735   -3.8442872 
