48
Energy =
C    -2.0111560   -1.8106379   -1.7605477 
C    -0.8936967   -2.1667559   -1.0774834 
C    -2.5693144   -0.5856019   -1.5674088 
C    -2.0034520    0.2765024   -0.6927978 
C    -0.8873169   -0.0747206   -0.0058712 
C    -0.3291946   -1.3034476   -0.1891683 
H    -0.4547437   -3.1468489   -1.2472971 
H    -2.4539268    1.2534390   -0.5534572 
H    -0.4395221    0.6370520    0.6848431 
H    -2.4558966   -2.5069696   -2.4634978 
C     0.9334191   -1.6897217    0.5506135 
C     2.1978863   -1.3575340   -0.2706778 
H     0.9093889   -2.7784097    0.7769436 
H     0.9795733   -1.1701702    1.5351405 
C     2.3339767    0.1370676   -0.5063586 
O    -3.7196959   -0.1874348   -2.2550052 
H    -4.0816392   -0.8863843   -2.8945802 
O     2.3079836    1.0226039    0.5669010 
N     3.3897412   -1.8894808    0.4086578 
H     2.1173821   -1.8359527   -1.2748142 
H     3.4722875   -1.4605054    1.3627947 
H     3.2964177   -2.9248633    0.5341905 
N     2.6604374    0.6368571   -1.8056654 
C     4.0373512    1.1193397   -1.9975763 
H     1.9288099    0.6659938   -2.5518221 
C     4.0403761    2.4467249   -2.7517681 
O     4.2896415    2.4790428   -4.1204997 
O     3.7370744    3.6422186   -2.1020945 
H     3.4415258    3.4804978   -1.1485395 
C     4.8424707    0.0110381   -2.7067250 
H     4.5167475    1.3374506   -1.0122930 
C     6.3270835    0.2985421   -2.6789233 
H     4.4902374   -0.1026624   -3.7570002 
H     4.6534051   -0.9651914   -2.2080176 
C     7.1700867    0.0522493   -1.6643434 
C     6.9328520   -0.5201055   -0.4562138 
C     7.9738401   -0.6471466    0.4157190 
C     9.2209461   -0.2026121    0.0722498 
C     9.4340354    0.3727682   -1.1455454 
C     8.3885229    0.4844381   -1.9916284 
H     5.9414445   -0.8680737   -0.1800445 
H     7.8095816   -1.1014197    1.3897093 
H    10.0447959   -0.3046839    0.7740137 
H    10.4149975    0.7364281   -1.4316242 
N     8.3904683    1.0628761   -3.2890821 
C     7.0132103    0.9090331   -3.6610540 
H     9.1821681    1.4818700   -3.8285581 
H     6.5796304    1.2698496   -4.5932879 
