48
Energy =
C     2.4570111   -1.7323054    0.7958221 
C     2.1475790   -0.4212254    0.6250109 
C     1.4849788   -2.6795174    0.7145402 
C     0.2091025   -2.3074133    0.4659573 
C    -0.1047856   -0.9981793    0.2959459 
C     0.8655698   -0.0463212    0.3690930 
H     2.9281104    0.3291588    0.6987769 
H    -0.5575321   -3.0720588    0.4054925 
H    -1.1366231   -0.7202404    0.1006326 
H     3.4809018   -2.0240592    1.0010506 
C     0.5257878    1.4154990    0.1708037 
C     0.5188514    1.8520514   -1.3175844 
H     1.2379192    2.0499653    0.7424275 
H    -0.4679450    1.6287413    0.6237858 
C     1.8572317    1.6101608   -2.0272204 
O     1.7694804   -4.0381759    0.8857140 
H     2.7488344   -4.2371315    1.0569687 
O     1.8436639    0.9047639   -3.2273547 
N    -0.6141238    1.2378496   -2.0323228 
H     0.3722989    2.9562721   -1.3543077 
H    -0.4225373    0.2218609   -2.2041809 
H    -1.4978453    1.3211720   -1.4796849 
N     2.9628201    2.5070636   -1.7686716 
C     4.3583271    1.9838822   -1.8768431 
H     2.8329062    2.9445288   -0.8287228 
C     5.1738440    2.8862809   -2.7971999 
O     6.3452889    3.4635124   -2.3216593 
O     4.8132599    3.0932333   -4.1286547 
H     3.8933321    2.7143459   -4.3167961 
C     4.4865094    0.4964805   -2.3144449 
H     4.8485101    2.0731849   -0.8789270 
C     5.9252469    0.0209389   -2.2738042 
H     4.1142633    0.3732368   -3.3565034 
H     3.8595492   -0.1626307   -1.6792711 
C     6.6063865   -0.4149296   -1.2020387 
C     6.2034800   -0.5599979    0.0854088 
C     7.1042954   -1.0206713    1.0001159 
C     8.3828230   -1.3208557    0.6187381 
C     8.7681971   -1.1594167   -0.6790558 
C     7.8568065   -0.7056827   -1.5649357 
H     5.1968125   -0.3086903    0.3907240 
H     6.8073338   -1.1441269    2.0389080 
H     9.0974744   -1.6831894    1.3537550 
H     9.7807958   -1.3835225   -0.9972524 
N     8.0566464   -0.4503969   -2.9472846 
C     6.7599023    0.0283141   -3.3295160 
H     8.9149499   -0.5848369   -3.5298263 
H     6.5041726    0.3924187   -4.3254673 
