48
Energy =
C     1.3162727   -3.9298691   -0.7363644 
C     1.1425568   -2.7511385   -0.0876581 
C     2.3826846   -4.7198516   -0.4429965 
C     3.2680931   -4.3255926    0.4991102 
C     3.0992763   -3.1474726    1.1522057 
C     2.0319647   -2.3538120    0.8643631 
H     0.2954077   -2.1204249   -0.3454645 
H     4.1156838   -4.9659426    0.7164829 
H     3.8264263   -2.8381952    1.8981389 
H     0.6034923   -4.2365197   -1.4932782 
C     1.8677022   -1.0150658    1.5526817 
C     2.8193194    0.0567963    0.9725307 
H     2.0596664   -1.1352146    2.6408764 
H     0.8180246   -0.6563620    1.4546739 
C     2.6507630    0.2090241   -0.5306596 
O     2.5943460   -5.9379648   -1.0952646 
H     1.8860060   -6.1630680   -1.7849195 
O     1.4070283    0.5808800   -1.0386421 
N     2.6040536    1.3396638    1.6583220 
H     3.8749233   -0.2555948    1.1433535 
H     1.6338153    1.6845794    1.4592953 
H     2.6967820    1.2167628    2.6931024 
N     3.5757515   -0.4631337   -1.3975959 
C     4.0511477    0.3576031   -2.5389416 
H     3.1088423   -1.3362625   -1.7272628 
C     4.6694083    1.6929662   -2.1132156 
O     6.0538547    1.8175092   -2.1040533 
O     3.9029123    2.8111231   -1.7796358 
H     2.9198334    2.5950386   -1.7036043 
C     2.9892583    0.5138556   -3.6635473 
H     4.9093329   -0.1926639   -2.9863948 
C     2.6356403   -0.8152451   -4.3010040 
H     3.4045740    1.1721417   -4.4593147 
H     2.0869830    1.0371486   -3.2915579 
C     1.5071067   -1.5322574   -4.1431774 
C     0.3844314   -1.2601494   -3.4287199 
C    -0.6289678   -2.1745155   -3.4344864 
C    -0.5078119   -3.3347106   -4.1462097 
C     0.6266480   -3.5879533   -4.8573310 
C     1.6133298   -2.6680979   -4.8376994 
H     0.2801692   -0.3408119   -2.8630824 
H    -1.5375501   -1.9802810   -2.8683080 
H    -1.3196881   -4.0585856   -4.1452965 
H     0.7416801   -4.5033585   -5.4284051 
N     2.8630871   -2.7427612   -5.5069246 
C     3.4635370   -1.5050450   -5.1061715 
H     3.2437471   -3.4941895   -6.1289828 
H     4.4614915   -1.1833723   -5.3999115 
