48
Energy =
C     0.4009429    3.5841480    3.5176042 
C    -0.2451908    3.1906993    2.3728225 
C     1.5917699    2.9801203    3.8739819 
C     2.1076711    2.0302387    3.0893943 
C     1.5087207    1.6649100    2.0023469 
C     0.3160303    2.1900806    1.6029213 
H    -1.1813698    3.6772896    2.0957003 
H     3.0046904    1.4893120    3.2884895 
H     2.1032203    0.9107882    1.5637455 
H    -0.0214265    4.3640278    4.1447961 
C    -0.3398089    1.6953643    0.3239282 
C     0.1405595    0.3278315   -0.2192271 
H    -0.2309396    2.4771638   -0.4587466 
H    -1.4327716    1.6092280    0.5134419 
C     1.5683807    0.3668942   -0.7409519 
O     2.3092383    3.2997977    5.0217452 
H     1.8843493    4.0192365    5.5970129 
O     1.9975879    1.4967135   -1.4319365 
N    -0.0835320   -0.7409696    0.7674046 
H    -0.4977254    0.1098984   -1.1035724 
H    -0.0742076   -1.6621280    0.2726724 
H     0.6870420   -0.7632076    1.4779114 
N     2.2938934   -0.8620197   -0.9514335 
C     3.7197537   -0.9401599   -0.5654092 
H     1.7892074   -1.7130206   -1.2906692 
C     4.0301605   -0.3847427    0.8255346 
O     3.9792878   -1.2456200    1.9184936 
O     4.4987706    0.9183913    1.0268088 
H     3.9203958    1.5752900    0.5126333 
C     4.6475662   -0.3070765   -1.6215817 
H     3.9847325   -2.0239779   -0.5514807 
C     4.4973563   -0.9449190   -2.9866349 
H     5.7026209   -0.4082973   -1.2892697 
H     4.4551729    0.7778575   -1.7048234 
C     5.2533945   -1.9221754   -3.5317462 
C     6.3283424   -2.5898376   -3.0270701 
C     6.9337895   -3.5361387   -3.8075685 
C     6.4630533   -3.8004286   -5.0674496 
C     5.3838225   -3.1224187   -5.5551202 
C     4.8000241   -2.1906434   -4.7612825 
H     6.7123448   -2.3859517   -2.0291849 
H     7.7981601   -4.0813998   -3.4257041 
H     6.9528503   -4.5543190   -5.6853185 
H     5.0016622   -3.3204387   -6.5552881 
N     3.6827819   -1.3690761   -5.0734693 
C     3.5545937   -0.5954191   -3.8768428 
H     3.0813977   -1.3146297   -5.9299788 
H     2.7891013    0.1506700   -3.7238014 
