48
Energy =
C     7.3560360    1.4272119   -0.4876659 
C     6.2884058    2.2545389   -0.3496819 
C     7.4507233    0.3022231    0.2672903 
C     6.4834198    0.0201366    1.1668902 
C     5.4168675    0.8456657    1.3143862 
C     5.2922513    1.9565158    0.5356970 
H     6.2262168    3.1431719   -0.9794806 
H     6.5705955   -0.8782755    1.7674413 
H     4.6627016    0.5875307    2.0469996 
H     8.1313924    1.6637880   -1.2085945 
C     4.0912425    2.8859275    0.6632537 
C     2.6775251    2.2163245    0.6401961 
H     4.1095905    3.6321043   -0.1678857 
H     4.2233504    3.4841113    1.5898201 
C     2.6086244    0.8763896   -0.0914196 
O     8.5306941   -0.5773143    0.1376893 
H     9.2250861   -0.2813727   -0.5388218 
O     2.4500944   -0.3085949    0.6198589 
N     2.1204949    2.1311172    2.0006035 
H     1.9951973    2.8785896    0.0550854 
H     2.7138373    1.5160936    2.6033747 
H     2.0817281    3.0790883    2.4424502 
N     2.3597111    0.8518760   -1.5015245 
C     3.5163043    1.0293718   -2.3950865 
H     1.3863137    0.6804379   -1.8368531 
C     3.4869935    2.3950674   -3.0485297 
O     4.4413779    3.3327264   -2.6747136 
O     2.5154511    2.7605245   -3.9743308 
H     1.8472582    2.0212760   -4.1229688 
C     3.5801788   -0.1300521   -3.4095734 
H     4.4678555    1.0218725   -1.8246726 
C     4.1398756   -1.3708664   -2.7463256 
H     4.2436934    0.1486005   -4.2602757 
H     2.5786054   -0.3340646   -3.8441198 
C     3.4536193   -2.3313678   -2.1056203 
C     2.1145920   -2.4925189   -1.9505234 
C     1.6688488   -3.5579963   -1.2247233 
C     2.5580526   -4.4355939   -0.6687492 
C     3.8986187   -4.2519817   -0.8341406 
C     4.3144146   -3.1927580   -1.5594041 
H     1.4075644   -1.7910003   -2.3789885 
H     0.6014216   -3.7033132   -1.0778950 
H     2.1953138   -5.2770314   -0.0837511 
H     4.6184060   -4.9309913   -0.3898092 
N     5.6562466   -2.8091457   -1.8237366 
C     5.4538015   -1.6178181   -2.5935168 
H     6.5503300   -3.2799268   -1.5509475 
H     6.2560579   -0.9739592   -2.9482178 
