48
Energy =
C     4.0940213   -1.3369814   -8.5973799 
C     2.9958544   -0.9447906   -7.9032858 
C     5.3039969   -0.7730706   -8.3386040 
C     5.4072406    0.1776874   -7.3830665 
C     4.3121582    0.5757159   -6.6875287 
C     3.0967608    0.0207464   -6.9484664 
H     2.0382134   -1.4124300   -8.1165839 
H     6.3801192    0.6109539   -7.1787721 
H     4.4203704    1.3309877   -5.9133114 
H     4.0027463   -2.1049827   -9.3575307 
C     1.8756654    0.4431144   -6.1612243 
C     1.6233972   -0.4783930   -4.9448889 
H     0.9902122    0.4289110   -6.8317430 
H     1.9692799    1.5027394   -5.8331138 
C     2.7288097   -0.3807506   -3.8979148 
O     6.4543471   -1.1513820   -9.0386135 
H     6.2973576   -1.8815571   -9.7243225 
O     3.8630961   -1.1718923   -4.0416264 
N     0.2997070   -0.1865989   -4.3695981 
H     1.6349781   -1.5418180   -5.2837181 
H     0.2240885    0.8338056   -4.1351021 
H    -0.4507190   -0.4079670   -5.0653143 
N     2.4937069    0.2527398   -2.6317653 
C     3.1073409    1.5692224   -2.3768187 
H     1.8902583   -0.2410687   -1.9379160 
C     2.5615283    2.6323701   -3.3265103 
O     3.2727345    3.0090803   -4.4591590 
O     1.2834656    3.1601342   -3.1540215 
H     0.8444593    2.8062489   -2.3170945 
C     4.6483820    1.4383849   -2.3938914 
H     2.8055021    1.8931544   -1.3562103 
C     5.3253270    2.6030622   -1.7018143 
H     5.0177693    1.3221852   -3.4338263 
H     4.9391000    0.5005966   -1.8693182 
C     5.9580609    3.6425022   -2.2728653 
C     6.1773480    3.9231091   -3.5835849 
C     6.8595902    5.0609677   -3.8997947 
C     7.3123061    5.8918266   -2.9129454 
C     7.0844379    5.5897859   -1.6035169 
C     6.4049448    4.4595189   -1.3161522 
H     5.8170598    3.2697698   -4.3708737 
H     7.0392375    5.3091003   -4.9430865 
H     7.8536691    6.7977054   -3.1734841 
H     7.4359962    6.2376847   -0.8081117 
N     6.0685128    3.9679568   -0.0266561 
C     5.3708082    2.7639635   -0.3671207 
H     6.2754035    4.3745447    0.9138916 
H     4.9388837    2.0794494    0.3585363 
