48
Energy =
C    -1.2731325    5.7619508   -1.2943797 
C    -0.5216463    5.4003266   -2.3650696 
C    -0.8177996    5.5393574   -0.0323668 
C     0.3878332    4.9550189    0.1493704 
C     1.1447844    4.5939982   -0.9168938 
C     0.6926005    4.8110044   -2.1835027 
H    -0.9006392    5.5856448   -3.3665431 
H     0.7374320    4.7765028    1.1599932 
H     2.1080920    4.1173926   -0.7489523 
H    -2.2392195    6.2297677   -1.4499073 
C     1.5348877    4.4064327   -3.3756293 
C     1.2470869    2.9748581   -3.9076220 
H     2.6129488    4.5063907   -3.1184839 
H     1.3848777    5.1388435   -4.1984667 
C     1.4419040    1.8715603   -2.8597456 
O    -1.5659465    5.9040618    1.0920637 
H    -2.4640174    6.3200893    0.8717082 
O     0.5960212    1.7995250   -1.7590811 
N    -0.0920220    2.8988587   -4.5180589 
H     1.9985327    2.7795503   -4.7077905 
H    -0.8259408    2.9643481   -3.7698121 
H    -0.2419986    3.6928464   -5.1836038 
N     2.4129561    0.8230396   -3.0380937 
C     3.6784743    1.1252623   -2.3324262 
H     2.5574766    0.6468120   -4.0568200 
C     4.3490231    2.3999339   -2.8310326 
O     4.5918105    3.4302778   -1.9329852 
O     4.6427992    2.6054649   -4.1784403 
H     4.5748206    1.7532907   -4.7150196 
C     4.6258591   -0.0876113   -2.4383674 
H     3.4597034    1.2985235   -1.2506292 
C     4.0769216   -1.2778859   -1.6840003 
H     5.6291267    0.1700944   -2.0301262 
H     4.7824071   -0.3623450   -3.5045010 
C     4.1561387   -1.4974363   -0.3623070 
C     4.7485363   -0.7563096    0.6092283 
C     4.6778352   -1.2010666    1.8969046 
C     4.0219544   -2.3648877    2.1907109 
C     3.4320221   -3.0905556    1.1983844 
C     3.5176861   -2.6308197   -0.0675547 
H     5.2641480    0.1710916    0.3778252 
H     5.1421798   -0.6253086    2.6940561 
H     3.9666770   -2.7113021    3.2197260 
H     2.9027812   -4.0124259    1.4142538 
N     2.9660636   -3.2219784   -1.2355891 
C     3.3666685   -2.2764330   -2.2366479 
H     2.4219805   -4.1090745   -1.3371528 
H     3.1043330   -2.3461923   -3.2893810 
