48
Energy =
C    -1.3696233    0.7487584   -4.6710363 
C    -1.4196834    1.1397952   -3.3722025 
C    -0.6689793   -0.3610426   -5.0255215 
C    -0.0325795   -1.0793427   -4.0749469 
C    -0.0907289   -0.7017614   -2.7722017 
C    -0.7675027    0.4257861   -2.4122149 
H    -1.9875298    2.0276387   -3.1099639 
H     0.5266946   -1.9574757   -4.3745691 
H     0.4324295   -1.2910466   -2.0238336 
H    -1.8894142    1.3283468   -5.4259030 
C    -0.7871703    0.8813271   -0.9611788 
C     0.4413500    1.7336605   -0.5246924 
H    -0.8461841   -0.0154631   -0.3045073 
H    -1.7160017    1.4571243   -0.7561355 
C     1.7597445    0.9980139   -0.6979660 
O    -0.5907254   -0.7853932   -6.3573530 
H    -1.1347795   -0.2168933   -6.9973762 
O     2.3333834    0.5221321    0.2979109 
N     0.4784311    3.0480303   -1.1977947 
H     0.3445627    1.8906438    0.5777107 
H    -0.2582664    3.1397835   -1.9302182 
H     0.3024521    3.8036896   -0.4956228 
N     2.3618832    0.8722409   -2.0021091 
C     3.6783474    0.2145241   -2.0358239 
H     1.8541693    1.2349601   -2.8379591 
C     4.2754177    0.2474882   -0.6359804 
O     5.6527510    0.2697783   -0.4363804 
O     3.5073469    0.2058532    0.3357010 
H     2.7165203   -0.4021510    0.2560014 
C     4.5813368    0.8758936   -3.0993528 
H     3.5366328   -0.8586320   -2.2800100 
C     3.9265576    0.8642055   -4.4644329 
H     5.5510018    0.3338969   -3.1569566 
H     4.8085597    1.9191250   -2.7848742 
C     3.6686791   -0.2138086   -5.2217951 
C     4.0092691   -1.5150530   -5.0295166 
C     3.5630358   -2.4408773   -5.9255511 
C     2.7874113   -2.0581584   -6.9848297 
C     2.4642008   -0.7459903   -7.1609208 
C     2.9276927    0.1535402   -6.2686431 
H     4.6231369   -1.8204573   -4.1863674 
H     3.8196956   -3.4897235   -5.7926568 
H     2.4187817   -2.8026322   -7.6855525 
H     1.8328305   -0.4292817   -7.9829740 
N     2.6740848    1.5520756   -6.2477102 
C     3.3516652    1.9340115   -5.0423067 
H     2.1381540    2.1354439   -6.9303465 
H     3.3264051    2.9312933   -4.6067540 
