48
Energy =
C    -0.4487394    3.8145050   -7.3675380 
C    -0.0724106    3.1243518   -6.2612389 
C    -0.8500057    5.1096136   -7.2619188 
C    -0.8701687    5.7058672   -6.0482847 
C    -0.4943793    5.0207851   -4.9386705 
C    -0.0949584    3.7234356   -5.0387198 
H     0.2496262    2.0913258   -6.3630335 
H    -1.1904727    6.7395093   -5.9776737 
H    -0.5168450    5.5180540   -3.9721455 
H    -0.4270909    3.3282773   -8.3367921 
C     0.3349741    2.9648379   -3.8031026 
C     1.7592758    3.3642875   -3.3335814 
H     0.2896784    1.8665766   -3.9752216 
H    -0.4007653    3.1749856   -2.9918881 
C     2.0118505    2.8605859   -1.9319788 
O    -1.2458223    5.8484956   -8.3817937 
H    -1.1955509    5.3328004   -9.2534227 
O     1.3294296    3.4323621   -0.8653919 
N     2.7884325    2.8646603   -4.2717736 
H     1.8432464    4.4736250   -3.2554481 
H     2.6873797    1.8251068   -4.3583791 
H     2.5379181    3.1991778   -5.2337784 
N     2.6467487    1.5945654   -1.7420531 
C     4.0944067    1.4964770   -2.0199719 
H     2.0514945    0.7787676   -1.4776656 
C     4.6805739    2.6482460   -2.8808927 
O     4.0154659    3.2497638   -3.9884350 
O     5.9703237    3.1169445   -2.6141907 
H     6.4231228    2.6208298   -1.8619577 
C     4.3958724    0.1113659   -2.6347319 
H     4.6053613    1.5538946   -1.0341331 
C     5.8820430   -0.1611377   -2.7040665 
H     3.9568278    0.0410962   -3.6531089 
H     3.9085111   -0.6853921   -2.0318992 
C     6.6574414   -0.6401351   -1.7189363 
C     6.3260369   -1.0259282   -0.4598693 
C     7.3190756   -1.4668977    0.3646513 
C     8.6134807   -1.5107462   -0.0747439 
C     8.9229844   -1.1126167   -1.3414701 
C     7.9225153   -0.6843154   -2.1393177 
H     5.3001533   -0.9854415   -0.1061259 
H     7.0808594   -1.7822957    1.3777131 
H     9.3997913   -1.8604144    0.5896066 
H     9.9454321   -1.1336472   -1.7032388 
N     8.0313856   -0.2067785   -3.4724331 
C     6.6649175    0.1196932   -3.7609587 
H     8.8784083   -0.1214886   -4.0800756 
H     6.3216899    0.5823699   -4.6857520 
