48
Energy =
C    -0.0290401    3.3776170   -3.7234843 
C    -0.0735812    2.3180968   -2.8772075 
C     0.6430923    4.5068255   -3.3717318 
C     1.2690671    4.5648347   -2.1734780 
C     1.2240938    3.5090871   -1.3221959 
C     0.5474325    2.3804524   -1.6680775 
H    -0.6042764    1.4181415   -3.1747010 
H     1.8132487    5.4640317   -1.9063172 
H     1.7472843    3.5707978   -0.3713533 
H    -0.5283941    3.3184870   -4.6835750 
C     0.5302936    1.1873803   -0.7387368 
C     1.6228388    0.1578546   -1.0984244 
H    -0.4683392    0.7009263   -0.7850077 
H     0.6517654    1.5145593    0.3171689 
C     3.0170049    0.7690910   -1.0665686 
O     0.7040040    5.6186865   -4.2215888 
H     0.2296865    5.4885243   -5.1077496 
O     3.5778855    1.2115195   -2.2607737 
N     1.5129410   -0.9779490   -0.1701044 
H     1.4645632   -0.1880842   -2.1480380 
H     0.5773649   -1.4313393   -0.2928245 
H     2.2151325   -1.7057417   -0.4368612 
N     3.6103199    1.1646767    0.1818361 
C     5.0654620    1.0429582    0.4359527 
H     2.9646400    1.4575871    0.9482467 
C     5.7381758    2.4097510    0.4723976 
O     6.6344181    2.6854872    1.4981533 
O     5.5343975    3.3741510   -0.5133308 
H     4.8657958    3.0614225   -1.2044580 
C     5.8104119    0.0851244   -0.5315000 
H     5.1912259    0.6468679    1.4670214 
C     5.2855903   -1.3372455   -0.4865006 
H     6.8864581    0.0541659   -0.2497873 
H     5.7872638    0.5024463   -1.5597870 
C     4.8599571   -2.0837485   -1.5224208 
C     4.7394717   -1.7715817   -2.8401804 
C     4.2643168   -2.7234243   -3.6929918 
C     3.9232839   -3.9617297   -3.2262904 
C     4.0554488   -4.2563997   -1.9027727 
C     4.5268217   -3.2983793   -1.0778150 
H     5.0009686   -0.7905843   -3.2241764 
H     4.1556348   -2.4938192   -4.7505347 
H     3.5461940   -4.7147290   -3.9138597 
H     3.7902769   -5.2348968   -1.5166248 
N     4.7322031   -3.4036857    0.3227287 
C     5.2317497   -2.0943400    0.6252052 
H     4.5640514   -4.2187119    0.9569077 
H     5.5434888   -1.7700445    1.6158666 
