48
 energy: -9.209787269438 gnorm: 0.000591355632 xtb: 6.6.0 (2ccbbd7)
C            0.56002664823720        4.57876820122652       -1.54834202293867
C            0.48284222886637        3.69425339800706       -0.49950307434402
C            1.31167942321146        5.74886204394472       -1.43484751184587
C            1.98123759683706        5.98917139892823       -0.23559871981840
C            1.90217843781667        5.09682000159821        0.80674645886459
C            1.14744416045062        3.93836035050088        0.69308036891391
H           -0.07162124693209        2.77676682786746       -0.60332107421318
H            2.57533556643830        6.88199062286072       -0.15502437561244
H            2.43824348082537        5.28777200006861        1.72036653696205
H            0.05724706423475        4.36668379215951       -2.47474059726418
C            1.07752550935045        2.94842644811003        1.81401968418931
C            1.90290822383101        1.67946729412492        1.55776473471458
H            0.03010559496979        2.66823588643629        1.97009407386313
H            1.40722019833032        3.42470380503031        2.74258897585135
C            1.32325015003666        0.90943081485574        0.37783908806266
O            1.40437904117224        6.66445346430360       -2.46525861725151
H            0.98867524496157        6.29987643056952       -3.27531757941865
O            0.12989645600620        0.67310462474782        0.43609943075078
N            3.32308510401077        1.97189453713147        1.46381266190886
H            1.78831848950559        1.00669025601555        2.42448402434007
H            3.49181071692034        2.53742232481751        0.63526296934987
H            3.63575771100984        2.50849229654617        2.26123063319544
N            2.04100793322166        0.45520880122782       -0.71745588007357
C            3.33486362153304        0.94713566807662       -1.20898043940189
H            1.52936289586927       -0.07823051854006       -1.41503990046968
C            3.22368879321270        2.37326868467646       -1.73067952206096
O            3.79684388983374        3.22819478451114       -1.08692796098990
O            2.52353353863549        2.63643667281175       -2.86093064085878
H            1.83791016420454        1.89219626695719       -3.34065124860667
C            3.92016802092019        0.03523853948586       -2.28893480646872
H            4.01935241058713        0.93945437481237       -0.35046646997749
C            3.10741529949527        0.06744265659100       -3.52492598948987
H            3.98220849235525       -0.99261964545812       -1.91808957099343
H            4.94137055208537        0.35155727907205       -2.52594612135397
C            3.43376308106449       -0.39571219572278       -4.78382724630253
C            4.57471373246527       -1.08912616851207       -5.26139905257667
C            4.60809079277969       -1.47907195870285       -6.57209739174489
C            3.54224420628329       -1.20649527681512       -7.44281159460793
C            2.42222074394624       -0.52463345169510       -7.01782192909075
C            2.35524831259309       -0.09760516563372       -5.69597757076012
H            5.38717200531775       -1.30582096139269       -4.59121405769590
H            5.46813588675107       -2.01012273644377       -6.94484899092690
H            3.60366170666319       -1.53458176832147       -8.46702682893366
H            1.61010743223279       -0.30775440485018       -7.68815928319675
N            1.36920775005248        0.59855650764933       -5.02090890067013
C            1.76385152835604        0.69295246154648       -3.62653101182477
H            0.36906265755029        0.49413734779316       -5.21146959995914
H            1.18351523771224        1.53792647891501       -2.93275682801990
