48
 energy: -9.278261067735 gnorm: 0.000657283466 xtb: 6.6.0 (2ccbbd7)
C           -1.52985119265499       -3.35944216363325       -5.40855298377475
C           -0.31175528873997       -3.08516744711406       -4.83281022910086
C           -2.50599308528433       -2.36845217563392       -5.51210013481939
C           -2.21229094060391       -1.10042076458294       -5.01302808886128
C           -0.99253674059456       -0.83736514953379       -4.43836110173126
C           -0.01977753291527       -1.82026956473025       -4.33984032815091
H            0.43337532105507       -3.85916612012625       -4.76455023913089
H           -2.96632083916634       -0.33679393011514       -5.08364267963416
H           -0.79142563034434        0.13692333050246       -4.02986623464099
H           -1.74134396751223       -4.34307427543713       -5.78797534436780
C            1.32712422482916       -1.53398344917035       -3.74355090555348
C            1.31304869259301       -1.06694391767565       -2.27116688428477
H            1.83347158513413       -0.78098560031961       -4.35593607176098
H            1.93696603667819       -2.44006627728272       -3.82693358213897
C            1.13824466351206        0.43268255681267       -2.15999926663755
O           -3.73902253667754       -2.60963765338775       -6.08699829460825
H           -3.79501212324962       -3.54258381428162       -6.38613241623733
O            0.05534015131611        0.90341554939949       -2.43842294275754
N            0.28156325485911       -1.72529993818679       -1.48734840176373
H            2.27314780496182       -1.33064641979736       -1.80562513605871
H           -0.61212381689846       -1.31073196305173       -1.71473878927304
H            0.23578351199338       -2.71245492439165       -1.70871507435824
N            2.18061623896198        1.24468739749124       -1.75595751463561
C            3.45087648975073        0.75358576725725       -1.21012434888766
H            1.95365372075196        2.19986422451092       -1.48825577997056
C            4.16506135179819        1.86426523022890       -0.46783881560921
O            4.65606207935089        1.60640973699159        0.60976397424753
O            4.22499312828801        3.05836778639592       -1.10287302409769
H            3.77434083628060        3.01092300453032       -1.97815079404862
C            4.37629561802990        0.15655409513784       -2.29848419270811
H            3.20155260748374       -0.01784065554356       -0.46900993990904
C            4.76199682908358       -1.26718768635031       -2.05956713959731
H            5.28573338819997        0.76200911835384       -2.37443366927977
H            3.88478063988096        0.24287166031643       -3.27265923648245
C            5.23506617277362       -1.83804029624137       -0.83930583639728
C            5.47420237354140       -1.30953692257217        0.44144406098854
C            5.94302249755197       -2.14003864888648        1.41977792417144
C            6.18687687891804       -3.49869010286013        1.16410156188981
C            5.96360328328326       -4.03678840281256       -0.07351487592203
C            5.48244037668435       -3.20181624610714       -1.08979159548471
H            5.28888190555203       -0.26764137402422        0.63690199966506
H            6.13016829156984       -1.74558841789178        2.40494160109903
H            6.55792093338742       -4.12598133352261        1.95763479734489
H            6.14981529487348       -5.07549817526470       -0.27949117919089
N            5.17906421906775       -3.44375455371941       -2.41760335844641
C            4.75539571242557       -2.27298084462055       -2.99475975431406
H            5.28591492210606       -4.34636803996302       -2.88390361720863
H            4.47051840037758       -2.16414840319041       -4.02862550281906
