48
Energy =
C    -2.2431181   -3.4175875   -2.4485077 
C    -1.6550113   -2.4629773   -1.6837446 
C    -1.4867972   -4.3770554   -3.0455828 
C    -0.1459212   -4.3732283   -2.8745915 
C     0.4468060   -3.4240192   -2.1085323 
C    -0.3041449   -2.4601266   -1.5068223 
H    -2.2726751   -1.6996162   -1.2183210 
H     0.4481789   -5.1370863   -3.3628478 
H     1.5265069   -3.4354684   -1.9905179 
H    -3.3194856   -3.4103585   -2.5826128 
C     0.3545061   -1.3887148   -0.6594304 
C     0.8838794   -0.1861893   -1.4795804 
H     1.1907839   -1.8371033   -0.0792571 
H    -0.3648622   -1.0142010    0.1018420 
C     2.0512251   -0.5628951   -2.3823634 
O    -2.0617731   -5.3773884   -3.8360239 
H    -3.0684650   -5.2993484   -3.9296512 
O     1.8300180   -1.1068652   -3.6440667 
N    -0.1988281    0.4717810   -2.2288060 
H     1.2886699    0.5572237   -0.7557715 
H    -0.5356136   -0.1580114   -2.9962486 
H    -1.0064468    0.6699158   -1.5944325 
N     3.3799966   -0.6290918   -1.8477785 
C     4.2876583    0.4954042   -2.1305450 
H     3.6572909   -1.4511143   -1.2674560 
C     3.8536299    1.7591748   -1.3886832 
O     3.1718127    2.7674253   -2.0609289 
O     4.0762560    1.9045175   -0.0193000 
H     4.5293044    1.0939732    0.3763402 
C     4.4170102    0.6925595   -3.6597104 
H     5.2934723    0.2294143   -1.7355416 
C     5.5770037    1.5965406   -4.0139741 
H     3.4654301    1.1001751   -4.0768786 
H     4.5495533   -0.2966643   -4.1513036 
C     6.8670031    1.2404206   -4.1154156 
C     7.4480385    0.0228791   -3.9614179 
C     8.8003245   -0.0729185   -4.1122500 
C     9.5428583    1.0368504   -4.4083582 
C     8.9373698    2.2496933   -4.5549036 
C     7.5981285    2.3180032   -4.4032308 
H     6.8607660   -0.8589306   -3.7231244 
H     9.2906405   -1.0364218   -3.9956703 
H    10.6203484    0.9525415   -4.5256936 
H     9.5117608    3.1404453   -4.7856496 
N     6.7799302    3.4748775   -4.5000172 
C     5.4850716    2.9214704   -4.2274636 
H     7.0497231    4.4621161   -4.7151004 
H     4.5644449    3.5028239   -4.1741376 
