48
Energy =
C    -0.8495180    2.6956124   -4.8836595 
C    -0.4772784    1.3947656   -5.0004430 
C    -1.9905118    3.0223150   -4.2229248 
C    -2.7517708    2.0452122   -3.6796073 
C    -2.3797643    0.7438986   -3.7836036 
C    -1.2378818    0.4102526   -4.4443973 
H     0.4544709    1.1453153   -5.5169086 
H    -3.6599667    2.3202305   -3.1546765 
H    -3.0002455   -0.0252347   -3.3317838 
H    -0.2244347    3.4749615   -5.3080992 
C    -0.8007176   -1.0376944   -4.5395834 
C     0.2546962   -1.4364798   -3.4767858 
H    -0.3698413   -1.2210112   -5.5507392 
H    -1.6786852   -1.7157125   -4.4654561 
C     1.4953574   -0.5577492   -3.5398607 
O    -2.4005719    4.3514920   -4.0841970 
H    -1.7709909    5.0252542   -4.5067710 
O     2.1681706   -0.4781696   -4.7555463 
N    -0.3393529   -1.4851112   -2.1295281 
H     0.6198311   -2.4572230   -3.7336633 
H    -0.7071725   -0.5400041   -1.8698983 
H    -1.1507360   -2.1455840   -2.1318381 
N     1.7731620    0.3959193   -2.4943600 
C     3.1524044    0.9427807   -2.4911094 
H     1.1001310    1.1830564   -2.6342740 
C     3.4988382    1.8128930   -3.7124929 
O     2.4828590    2.3738436   -4.4815773 
O     4.8087025    2.2292436   -3.9710088 
H     5.4154875    2.1098262   -3.1766748 
C     4.1920779   -0.1488586   -2.1081106 
H     3.1871870    1.6703332   -1.6505929 
C     4.4429789   -1.2126072   -3.1639578 
H     3.8516438   -0.6233446   -1.1647650 
H     5.1628116    0.3211947   -1.8483319 
C     4.0227281   -2.4912717   -3.1392437 
C     3.2521469   -3.1436144   -2.2272561 
C     2.9554870   -4.4559774   -2.4479084 
C     3.4250935   -5.0921737   -3.5622245 
C     4.1921225   -4.4190996   -4.4655533 
C     4.4736002   -3.1216722   -4.2262441 
H     2.8543427   -2.6425625   -1.3507507 
H     2.3348452   -4.9973725   -1.7372050 
H     3.1806742   -6.1378762   -3.7332441 
H     4.5657953   -4.9066454   -5.3595208 
N     5.2409031   -2.2498889   -5.0429190 
C     5.1620087   -1.0311662   -4.2889360 
H     5.7460847   -2.4532915   -5.9358262 
H     5.5928015   -0.0856387   -4.6097041 
