48
 energy: -9.292765139557 gnorm: 0.000611405429 xtb: 6.6.0 (2ccbbd7)
C            0.68591766150676        4.85033203306849        1.41482144591883
C            0.05853648642434        3.66499178266390        1.11179658808316
C            1.90026220964291        4.85637297752352        2.10184346981850
C            2.46202293698940        3.63172361400530        2.46063443770144
C            1.82970487846122        2.45178539651486        2.15217744344739
C            0.61294232243820        2.44935713977628        1.48449413348448
H           -0.87222288533797        3.67075637789558        0.57094452742526
H            3.40237840243539        3.63581400285486        2.98289392768835
H            2.28562831354095        1.51070985492801        2.40975040018957
H            0.24567942497015        5.78698063413732        1.12338775439381
C           -0.02870704903258        1.15645458894955        1.08018642901817
C            0.44824993386130        0.68915548082920       -0.29620682243004
H           -1.11823979380921        1.25743902055971        1.09182252082038
H            0.21234763299352        0.38434032649053        1.81665400274060
C            1.94890723150773        0.56368774981157       -0.29195568433714
O            2.55379153686013        6.02910233926228        2.42743029508384
H            2.06370630323400        6.79996971099647        2.06875133534614
O            2.43992992545195       -0.46316035196858        0.12651224455043
N           -0.10864985219577       -0.59526574398848       -0.69546566526219
H            0.16030834689319        1.43613303413766       -1.05141533630606
H            0.40624724656598       -1.31529449454693       -0.19809899223414
H           -1.08512763810523       -0.66320844264321       -0.43694685047596
N            2.68923235495799        1.63019751959332       -0.74813085333446
C            4.10668818374076        1.46065210445964       -0.99625790889084
H            2.25149904608274        2.34993450696412       -1.32549348090527
C            4.74143053364331        2.79272020633168       -1.34664672538233
O            5.63250776237041        2.81407651219648       -2.16777611627479
O            4.26324593698182        3.87269650262069       -0.68068356073389
H            3.58895863367410        3.61184578244048       -0.00950899870584
C            4.32531393383354        0.40028014074141       -2.08158979421141
H            4.55595246873393        1.11734422606040       -0.05234636128034
C            3.46527065451768        0.60914569663091       -3.28342642117276
H            4.10042179162319       -0.58865469887380       -1.66605434312301
H            5.37924850409028        0.38705178437073       -2.37663137210041
C            3.79336144684883        1.33392567245843       -4.46826362842419
C            4.92716528965192        2.06483267439991       -4.86227897951416
C            4.92742318025367        2.66932322374679       -6.08839984175680
C            3.81843161200931        2.57432550691814       -6.94465991854197
C            2.69531997180519        1.88630036263431       -6.57470998493844
C            2.67473114132750        1.26234919955398       -5.32087866371645
H            5.74389734890658        2.19082984753982       -4.17312551608011
H            5.78524414069477        3.24372601156567       -6.39674151037779
H            3.85009050361204        3.06385806592500       -7.90390947098216
H            1.83587887906575        1.82089762967006       -7.21745269176981
N            1.69289878053935        0.54667225921615       -4.65918826050037
C            2.17147008458705        0.17197011924271       -3.42958861077427
H            0.75638848919413        0.36616264401757       -5.02530801229702
H            1.59062587928676       -0.33121479984328       -2.67260427755869
