48
Energy =
C     8.6514440   -0.0899545   -0.7258831 
C     7.4292354    0.4983970   -0.6800496 
C     9.2078106   -0.6004647    0.4045760 
C     8.5355284   -0.5197226    1.5743761 
C     7.3128854    0.0656480    1.6267438 
C     6.7501245    0.5769327    0.4977916 
H     6.9985719    0.8916957   -1.5988138 
H     8.9895523   -0.9312444    2.4680658 
H     6.7911269    0.1181683    2.5781709 
H     9.1811107   -0.1539786   -1.6698682 
C     5.3870861    1.2329849    0.5545513 
C     4.1977488    0.2658053    0.2840885 
H     5.3576814    2.0937649   -0.1572673 
H     5.2472089    1.7107626    1.5478831 
C     4.2010790   -0.3511499   -1.1230712 
O    10.4674838   -1.2102869    0.3925188 
H    10.8973227   -1.2442838   -0.5251874 
O     5.1503166   -1.3127720   -1.4564317 
N     4.1326710   -0.7774895    1.3186079 
H     3.2647380    0.8711298    0.3622480 
H     4.9475379   -1.4293465    1.2066468 
H     4.2072317   -0.3516951    2.2714594 
N     3.2236876    0.0107451   -2.1214157 
C     3.8757932    0.6426144   -3.2942824 
H     2.5262903    0.6642222   -1.7022975 
C     4.6337786    1.9322616   -2.9880254 
O     5.7729597    2.2198193   -3.7315743 
O     4.2205262    2.8539433   -2.0159664 
H     3.4114514    2.5793339   -1.4735932 
C     2.8502761    0.8317984   -4.4348689 
H     4.6585300   -0.0519295   -3.6868451 
C     1.6941181    1.7385116   -4.0632222 
H     2.4531267   -0.1679364   -4.7200777 
H     3.3621806    1.2288805   -5.3397958 
C     1.6500529    3.0795441   -4.1440734 
C     2.5870510    3.9616476   -4.5789353 
C     2.2857859    5.2918722   -4.5578195 
C     1.0648936    5.7168142   -4.1125569 
C     0.1384223    4.8138650   -3.6832703 
C     0.4610664    3.5036828   -3.7105231 
H     3.5633668    3.6309573   -4.9210686 
H     3.0255000    6.0177983   -4.8874254 
H     0.8347657    6.7792098   -4.0942305 
H    -0.8334067    5.1341719   -3.3236165 
N    -0.3562565    2.4118004   -3.3120701 
C     0.5192205    1.3064229   -3.5703842 
H    -1.3330416    2.4195485   -2.9375377 
H     0.2691969    0.2640863   -3.3805334 
