48
Energy =
C     2.5422035   -0.6286675    3.5239403 
C     1.8179817   -1.1057218    2.4800440 
C     2.7832375    0.7049074    3.6362096 
C     2.2932174    1.5530186    2.7040648 
C     1.5666563    1.0817266    1.6594479 
C     1.3289750   -0.2536583    1.5367356 
H     1.6346118   -2.1743879    2.4041748 
H     2.4907617    2.6145934    2.8047491 
H     1.1836654    1.7804802    0.9185321 
H     2.9284077   -1.3166932    4.2681390 
C     0.5316978   -0.7835815    0.3608489 
C     1.3683666   -0.9880452   -0.9255333 
H    -0.2993387   -0.0755174    0.1402200 
H     0.0420132   -1.7444592    0.6311344 
C     2.0286157    0.3019790   -1.4114799 
O     3.5308560    1.2277970    4.6964081 
H     3.8475193    0.5294287    5.3596763 
O     1.2320840    1.2389588   -2.0564213 
N     2.3114348   -2.1166075   -0.7813262 
H     0.6509805   -1.2392835   -1.7436389 
H     2.8170517   -2.0643876    0.1336111 
H     1.7639916   -3.0100640   -0.7553495 
N     3.3608749    0.6907718   -1.0153928 
C     4.2833261    0.8069529   -2.1695142 
H     3.7312935   -0.0080299   -0.3343251 
C     3.9850183    2.0403119   -3.0331087 
O     4.0565146    1.9534484   -4.4197657 
O     3.7652998    3.2924730   -2.4630646 
H     3.5914528    3.2139328   -1.4723437 
C     4.3340293   -0.5200270   -2.9825758 
H     5.2985678    1.0121493   -1.7600188 
C     5.6485705   -0.6872946   -3.7147060 
H     3.4848495   -0.5530623   -3.7034266 
H     4.1859873   -1.3952132   -2.3130360 
C     6.8009253   -1.1330126   -3.1903603 
C     7.0775507   -1.5500706   -1.9277530 
C     8.3493862   -1.9522451   -1.6432128 
C     9.3143799   -1.9296069   -2.6121191 
C     9.0135924   -1.5037542   -3.8719371 
C     7.7478820   -1.1131096   -4.1294016 
H     6.3150856   -1.5643091   -1.1543574 
H     8.5985525   -2.2903444   -0.6399961 
H    10.3265214   -2.2494330   -2.3764665 
H     9.7685070   -1.4748057   -4.6505535 
N     7.2321386   -0.6268127   -5.3599820 
C     5.8662806   -0.3667547   -5.0033628 
H     7.7159480   -0.5003340   -6.2788687 
H     5.1216462    0.0637130   -5.6746083 
