48
Energy =
C    -2.9797958    2.5657710   -4.2590648 
C    -1.8491370    2.6827429   -3.5178565 
C    -4.1973166    2.7523562   -3.6826288 
C    -4.2742162    3.0553486   -2.3667962 
C    -3.1467491    3.1738064   -1.6206637 
C    -1.9258008    2.9907310   -2.1940788 
H    -0.8825141    2.5290871   -3.9913158 
H    -5.2511503    3.2006821   -1.9191590 
H    -3.2306570    3.4132097   -0.5639671 
H    -2.9073863    2.3217495   -5.3133519 
C    -0.6650159    3.1028804   -1.3665849 
C    -0.0911416    1.7198163   -0.9713175 
H    -0.8358748    3.7114774   -0.4518962 
H     0.1004714    3.6630629   -1.9510909 
C     1.2823825    1.8315473   -0.3306054 
O    -5.3822205    2.6369319   -4.4171601 
H    -5.2388877    2.4151395   -5.3962946 
O     1.8048365    2.9375338   -0.1241573 
N    -1.0146396    1.0066932   -0.0748776 
H     0.0638654    1.1161495   -1.8947577 
H    -1.2491241    1.6118622    0.7468426 
H    -1.9057024    0.7953804   -0.5814853 
N     2.0743169    0.6526010   -0.1236332 
C     3.5020721    0.8219220   -0.4413824 
H     1.6372635   -0.2440688    0.1897422 
C     3.8478497    2.3109857   -0.5052580 
O     5.1065945    2.7209776   -0.9349290 
O     2.9996449    3.1571050   -0.1811903 
H     2.4528041    2.9997712    0.6402582 
C     3.8051127    0.1138365   -1.7760240 
H     4.1181054    0.3877238    0.3756182 
C     3.6596314   -1.3849329   -1.6515575 
H     4.8364673    0.3561560   -2.1173384 
H     3.1146247    0.4983243   -2.5595719 
C     4.5605195   -2.2392330   -1.1428210 
C     5.8039521   -2.0021556   -0.6517973 
C     6.5260989   -3.0590519   -0.1802034 
C     5.9994736   -4.3212769   -0.2042043 
C     4.7468190   -4.5340234   -0.6992878 
C     4.0533101   -3.4725959   -1.1616740 
H     6.2211629   -0.9994315   -0.6288667 
H     7.5248956   -2.8965610    0.2181899 
H     6.5805493   -5.1583592    0.1748321 
H     4.3124449   -5.5277013   -0.7220728 
N     2.7394486   -3.4732102   -1.7025276 
C     2.5590019   -2.0796281   -1.9877444 
H     2.0836151   -4.2741100   -1.8510281 
H     1.6468011   -1.6463449   -2.3922644 
