48
Energy =
C     2.8577929   -3.2677574   -2.6896735 
C     3.2615624   -2.2147277   -1.9336783 
C     2.7519377   -4.5041725   -2.1355640 
C     3.0481315   -4.6775805   -0.8277268 
C     3.4493719   -3.6269725   -0.0676435 
C     3.5603689   -2.3860732   -0.6176182 
H     3.3272010   -1.2277023   -2.3796446 
H     2.9578962   -5.6688024   -0.3971197 
H     3.6795525   -3.7884347    0.9817979 
H     2.6143599   -3.1185522   -3.7355798 
C     4.0069442   -1.2102683    0.2301482 
C     2.8459322   -0.3251654    0.7566969 
H     4.7235812   -0.5827731   -0.3462717 
H     4.5921889   -1.5789887    1.1014107 
C     2.2401942    0.5654714   -0.3181715 
O     2.3414492   -5.6105908   -2.8860272 
H     2.1233712   -5.3971010   -3.8525713 
O     1.4141158    0.0275816   -1.3019322 
N     1.8191918   -1.1293813    1.4375466 
H     3.2803951    0.3763792    1.5053042 
H     1.2961985   -1.6976923    0.7275622 
H     2.2722341   -1.7970658    2.1028275 
N     2.7622364    1.8835755   -0.5202179 
C     3.6635841    2.0612258   -1.6690365 
H     2.5506359    2.6344639    0.1738085 
C     4.9589914    2.7405797   -1.2584849 
O     6.0610080    1.9739499   -0.9053839 
O     5.0555449    4.1265257   -1.1984249 
H     4.6462195    4.4359758   -0.3291751 
C     2.9059920    2.8340660   -2.7638102 
H     3.9666710    1.0713540   -2.0794134 
C     3.6159749    2.7244510   -4.0919658 
H     2.7845870    3.9007910   -2.4720495 
H     1.8751783    2.4253164   -2.8579857 
C     3.4860246    1.7316437   -4.9849086 
C     2.6804068    0.6380838   -4.9589239 
C     2.7557277   -0.2457251   -5.9948678 
C     3.6294320   -0.0295731   -7.0250017 
C     4.4337254    1.0719278   -7.0248289 
C     4.3364593    1.9348823   -5.9916802 
H     1.9896176    0.4618247   -4.1372555 
H     2.1170727   -1.1259746   -6.0013831 
H     3.6855497   -0.7399052   -7.8463220 
H     5.1382913    1.2535763   -7.8294391 
N     5.0971333    3.1173439   -5.7833768 
C     4.5766950    3.5608638   -4.5207194 
H     5.8341452    3.5461076   -6.3895196 
H     4.9514781    4.4158676   -3.9554509 
