48
Energy =
C     7.7060699    3.0443932    1.2844045 
C     6.5068495    3.1952831    1.8840542 
C     7.8803452    2.2087401    0.2344000 
C     6.8268172    1.6258016   -0.3624264 
C     5.3956930    2.1459601   -0.1276944 
C     5.3928756    2.6223604    1.3753941 
H     6.4780095    3.6892049    2.8522892 
H     7.0768490    0.9231643   -1.1367591 
H     5.2930645    3.1095203   -0.7037573 
H     8.5769547    3.4969503    1.7472845 
C     4.1776669    2.3830892    2.3458579 
C     3.8505214    0.8411695    2.5869715 
H     3.2827646    2.8907375    1.9191071 
H     4.3514630    2.8723284    3.3288715 
C     3.4477755   -0.1112912    1.3914916 
O     9.1598710    1.8970137   -0.2372691 
H     9.9146639    2.3659178    0.2528214 
O     3.3388490   -1.4711216    1.6541571 
N     4.9589857    0.2434195    3.3478349 
H     2.9481638    0.8106562    3.2397556 
H     5.8339969    0.2504512    2.7712250 
H     5.1443014    0.7841194    4.2247509 
N     2.9798294    0.3526798    0.0760788 
C     3.9962864    1.0672998   -0.7885014 
H     2.1309341    0.9397199    0.2632321 
C     3.1562387    2.0078145   -1.7098626 
O     2.7717734    1.6007935   -2.9850331 
O     2.7217053    3.2556612   -1.2486959 
H     2.9564110    3.4371312   -0.2804504 
C     4.6314714   -0.1292193   -1.6036743 
H     4.3694063    1.5983985    0.3223475 
C     5.4593512    0.1518814   -2.8583977 
H     3.7945947   -0.7840159   -1.9448496 
H     5.2286142   -0.7483149   -0.8996880 
C     6.1473142   -0.7879085   -3.5290773 
C     6.2524814   -2.1206229   -3.2856562 
C     7.0229903   -2.8748630   -4.1210252 
C     7.6703356   -2.2933235   -5.1759952 
C     7.5494604   -0.9545680   -5.4016658 
C     6.7813735   -0.2311557   -4.5605864 
H     5.7338515   -2.5863355   -2.4521212 
H     7.1203878   -3.9437925   -3.9483596 
H     8.2814582   -2.9003501   -5.8385881 
H     8.0534393   -0.4766024   -6.2347112 
N     6.5242959    1.1605671   -4.6196341 
C     5.6554741    1.3303485   -3.4909111 
H     6.8815835    1.8741533   -5.2951141 
H     5.2281002    2.2877131   -3.2106462 
