48
Energy =
C     3.6368504   -3.2917861    4.3090950 
C     3.8539634   -2.2216202    3.5030710 
C     3.5114590   -4.5358982    3.7745239 
C     3.6033692   -4.7000891    2.4352151 
C     3.8202592   -3.6337279    1.6244276 
C     3.9511906   -2.3870233    2.1551571 
H     3.9490669   -1.2321073    3.9442524 
H     3.4992173   -5.6969262    2.0208399 
H     3.8852333   -3.7867572    0.5505005 
H     3.5624319   -3.1500450    5.3819030 
C     4.1757614   -1.1913170    1.2574893 
C     2.8696178   -0.4027227    1.0071047 
H     4.6178729   -1.5092235    0.2895326 
H     4.9303574   -0.5233121    1.7346169 
C     3.1623925    0.9428866    0.3715411 
O     3.2867288   -5.6594679    4.5765165 
H     3.2296927   -5.4539605    5.5680195 
O     3.7240922    1.9499290    1.1482693 
N     1.9254746   -1.1924140    0.1959001 
H     2.3941290   -0.1522903    1.9853593 
H     2.4117666   -1.5921088   -0.6409977 
H     1.5721761   -2.0001685    0.7622236 
N     3.0622132    1.1343949   -1.0435084 
C     4.3045416    1.4140571   -1.7797682 
H     2.1294800    1.0320112   -1.5035562 
C     4.1568856    2.7042966   -2.5818809 
O     3.7736608    2.6554561   -3.9190713 
O     4.3362583    3.9507791   -1.9849554 
H     4.4660920    3.8668786   -0.9849396 
C     4.6388722    0.1933720   -2.6612991 
H     5.1515687    1.5800335   -1.0727635 
C     6.0111935    0.3161756   -3.2879929 
H     3.8654181    0.0784955   -3.4549253 
H     4.5986125   -0.7331045   -2.0509395 
C     7.1881109    0.0425070   -2.7032892 
C     7.4528196   -0.4185765   -1.4539939 
C     8.7549622   -0.6069841   -1.0949705 
C     9.7618336   -0.3315838   -1.9786460 
C     9.4721155    0.1356011   -3.2264294 
C     8.1758586    0.3109100   -3.5584596 
H     6.6566520   -0.6279167   -0.7483255 
H     8.9938907   -0.9734402   -0.0995211 
H    10.7975933   -0.4805936   -1.6837538 
H    10.2584259    0.3661722   -3.9371374 
N     7.6628969    0.8000580   -4.7891427 
C     6.2526559    0.7806695   -4.5270471 
H     8.1744985    1.0884990   -5.6544392 
H     5.4899811    1.1311301   -5.2222767 
