48
Energy =
C     0.1876693   -4.0273036    2.2075518 
C    -0.3578968   -3.1126164    1.3615179 
C     1.5313529   -4.2557690    2.1977378 
C     2.3194496   -3.5678446    1.3400486 
C     1.7682513   -2.6595696    0.5000950 
C     0.4385859   -2.4122753    0.5091496 
H    -1.4324190   -2.9511627    1.3707555 
H     3.3880993   -3.7502581    1.3331766 
H     2.3590416   -1.9958172   -0.2673359 
H    -0.4530697   -4.5785986    2.8871190 
C    -0.1421974   -1.4259703   -0.4953165 
C     0.7177398   -0.1390705   -0.7053856 
H    -1.1583368   -1.1226118   -0.1595757 
H    -0.2670530   -1.9498260   -1.4684774 
C     2.0531684   -0.3924662   -1.4305375 
O     2.1232884   -5.1891045    3.0549724 
H     1.4647033   -5.6604843    3.6650105 
O     2.9252876   -1.3835893   -0.9826302 
N    -0.0893912    0.8672918   -1.4166484 
H     1.0059911    0.2669251    0.2939430 
H    -0.5067157    0.4479164   -2.2818705 
H    -0.8850208    1.1777411   -0.8089031 
N     2.5584706    0.5588170   -2.3721332 
C     3.8339091    1.2242506   -2.0424212 
H     2.0166694    0.7512501   -3.2427757 
C     3.6681036    2.7411176   -1.9859255 
O     4.6576506    3.5680745   -2.5052854 
O     2.5795507    3.3374287   -1.3501270 
H     1.9034918    2.6569576   -1.0347865 
C     4.9045389    0.7941582   -3.0734734 
H     4.1832313    0.9384489   -1.0225435 
C     5.1487639   -0.6990716   -3.0456890 
H     5.8661981    1.3151003   -2.8669623 
H     4.5904166    1.1101514   -4.0930664 
C     5.8653956   -1.3794242   -2.1373199 
C     6.5634686   -0.9279200   -1.0635863 
C     7.1998962   -1.8404306   -0.2742978 
C     7.1290513   -3.1747761   -0.5660261 
C     6.4227827   -3.6043935   -1.6503327 
C     5.8043329   -2.6822159   -2.4174480 
H     6.6166008    0.1306468   -0.8288765 
H     7.7631095   -1.5052840    0.5932181 
H     7.6353090   -3.8962946    0.0701683 
H     6.3523831   -4.6588132   -1.8936467 
N     5.0154422   -2.9179180   -3.5754923 
C     4.6195498   -1.5809246   -3.9121789 
H     4.7964910   -3.8215564   -4.0530181 
H     3.9541145   -1.3243130   -4.7321508 
