48
Energy =
C    -0.5739127    0.9072659   -5.1735818 
C    -0.9501087    0.3297684   -4.0067019 
C     0.7290471    1.2163995   -5.3922913 
C     1.6437027    0.9748903   -4.4412491 
C     1.2833329    0.4632962   -3.2240670 
C    -0.0321118    0.0747482   -3.0356278 
H    -1.9933945    0.0636796   -3.8577381 
H     2.6768185    1.1880649   -4.6900174 
H     2.2545184    0.1208505   -2.3967887 
H    -1.3157393    1.1010572   -5.9403858 
C    -0.4958928   -0.5898837   -1.7469208 
C     0.6200278   -0.7914705   -0.6958105 
H    -0.9450750   -1.5764579   -1.9933941 
H    -1.2936223    0.0437786   -1.2976648 
C     1.4023039    0.5032860   -0.5035817 
O     1.1714337    1.7744458   -6.5913534 
H     0.4310309    1.9391646   -7.2661850 
O     1.1966516    1.2845579    0.6287813 
N     0.0496872   -1.2970524    0.5626339 
H     1.3500971   -1.5431386   -1.0750650 
H    -0.5578895   -0.5590862    0.9945965 
H    -0.5513622   -2.1325865    0.3751281 
N     1.9935924    1.1363043   -1.6675971 
C     3.3571572    1.7313355   -1.3739692 
H     1.3586679    2.0079970   -1.7085676 
C     3.4642628    3.2493161   -1.5720551 
O     4.2040105    3.9875328   -0.6563002 
O     2.9279156    3.9129005   -2.6733159 
H     2.5206142    3.2681773   -3.3260461 
C     4.5087081    1.0354779   -2.1499071 
H     3.5874624    1.6203642   -0.2884572 
C     4.7664072   -0.3695847   -1.6485081 
H     5.4572043    1.6149837   -2.0483940 
H     4.2664715    1.0195894   -3.2336731 
C     5.3204325   -0.7181510   -0.4762333 
C     5.8109203    0.0609279    0.5228247 
C     6.3226602   -0.5510691    1.6303389 
C     6.3407766   -1.9158516    1.7185189 
C     5.8491229   -2.6769822    0.6998483 
C     5.3466855   -2.0487122   -0.3834388 
H     5.8023042    1.1457525    0.4506870 
H     6.7174754    0.0480977    2.4487142 
H     6.7487420   -2.3974186    2.6041787 
H     5.8574604   -3.7605985    0.7528317 
N     4.7941400   -2.6502417   -1.5450888 
C     4.4481153   -1.4924018   -2.3156919 
H     4.6696053   -3.6634012   -1.7728142 
H     3.9935472   -1.5216720   -3.3035659 
