48
Energy =
C     4.7714691    0.9450038    5.1931762 
C     4.5945283    0.4747377    3.9325559 
C     3.7069075    1.0782355    6.0286764 
C     2.4711747    0.7400462    5.5956267 
C     2.2880300    0.2698331    4.3357548 
C     3.3512229    0.1312283    3.4967637 
H     5.4547568    0.3751062    3.2753202 
H     1.6305421    0.8525067    6.2716249 
H     1.2858972    0.0084318    4.0064007 
H     5.7661600    1.2150096    5.5309780 
C     3.1535304   -0.3757815    2.0851501 
C     3.1851008    0.7645567    1.0376216 
H     2.1997625   -0.9430445    1.9949889 
H     3.9571398   -1.1127148    1.8571776 
C     3.1723434    0.2261851   -0.3911535 
O     3.8540233    1.5602262    7.3333793 
H     4.8092587    1.7937614    7.5817270 
O     3.0595000   -1.1399304   -0.6281509 
N     2.0613559    1.6926962    1.2488197 
H     4.1452483    1.3182466    1.1482560 
H     1.1579460    1.1617722    1.2827977 
H     2.1709661    2.1827542    2.1687603 
N     3.2323543    1.1119043   -1.5205743 
C     4.6005771    1.6288725   -1.7774870 
H     2.5030597    1.8535302   -1.4113227 
C     4.6927092    3.1621036   -1.7794883 
O     5.5353546    3.8030821   -2.6799392 
O     4.0636633    3.9454408   -0.8123554 
H     3.5667599    3.3978422   -0.1287461 
C     5.1050547    1.0014066   -3.0975237 
H     5.3186196    1.3122743   -0.9854951 
C     4.1835604    1.2744172   -4.2728248 
H     5.2076982   -0.0962665   -2.9566590 
H     6.1267967    1.3764091   -3.3310863 
C     3.1338912    0.5320696   -4.6656555 
C     2.6391187   -0.6228800   -4.1497530 
C     1.5456884   -1.1830626   -4.7413589 
C     0.9694225   -0.5897829   -5.8300952 
C     1.4832712    0.5684593   -6.3327593 
C     2.5651497    1.1036789   -5.7289032 
H     3.0891706   -1.0944436   -3.2815148 
H     1.1296595   -2.1043473   -4.3406319 
H     0.0970131   -1.0419172   -6.2949365 
H     1.0377516    1.0536287   -7.1944367 
N     3.2460783    2.2956682   -6.0915384 
C     4.2787364    2.3349039   -5.0962515 
H     3.0521761    2.9595723   -6.8761647 
H     5.0275341    3.1217587   -5.0183790 
