48
Energy =
C     2.1693593   -0.5003922   -5.6385182 
C     1.4468121   -0.6833286   -4.5052468 
C     2.3996042    0.7550606   -6.1064609 
C     1.9009395    1.8200120   -5.4378662 
C     1.1728526    1.6421930   -4.3062576 
C     0.9380762    0.3873606   -3.8365165 
H     1.2816966   -1.6915992   -4.1343297 
H     2.0961554    2.8161902   -5.8197097 
H     0.7898116    2.5104018   -3.7732947 
H     2.5659489   -1.3602079   -6.1663272 
C     0.1681315    0.1855758   -2.5516367 
C     1.1211637    0.0624008   -1.3437112 
H    -0.4552731   -0.7310706   -2.6404834 
H    -0.5439822    1.0264463   -2.3851128 
C     1.8390646    1.3714606   -1.0583641 
O     3.1491501    0.9777480   -7.2661875 
H     3.4621419    0.1299409   -7.7256828 
O     1.1371914    2.4528029   -0.5371912 
N     0.3759642   -0.3920270   -0.1608049 
H     1.9024348   -0.6918212   -1.5754843 
H    -0.3873181    0.2948706    0.0545787 
H    -0.0769559   -1.3142062   -0.3590067 
N     3.1935432    1.5734470   -1.4831044 
C     4.1922058    1.8258430   -0.4270797 
H     3.4360149    1.4720505   -2.4945517 
C     4.7911521    3.2243681   -0.5617216 
O     6.1718435    3.3878551   -0.5955678 
O     3.9906479    4.3635215   -0.5938258 
H     3.0067506    4.1297231   -0.5921199 
C     5.2832552    0.7310603   -0.4842968 
H     3.7203780    1.8200986    0.5849905 
C     4.7066003   -0.6654661   -0.4113992 
H     5.9944354    0.8718465    0.3612391 
H     5.8904914    0.8567317   -1.4071525 
C     4.5144786   -1.5167127   -1.4336533 
C     4.7752261   -1.3666262   -2.7590300 
C     4.4576805   -2.3900116   -3.6024039 
C     3.8823035   -3.5316261   -3.1180617 
C     3.6233484   -3.6580844   -1.7858449 
C     3.9546020   -2.6358420   -0.9697641 
H     5.2178896   -0.4581188   -3.1548867 
H     4.6600829   -2.2947146   -4.6666778 
H     3.6291342   -4.3417157   -3.7977047 
H     3.1617643   -4.5545114   -1.3854260 
N     3.7443507   -2.5560906    0.4322046 
C     4.2539911   -1.2461223    0.7135983 
H     3.3323538   -3.2634331    1.0834969 
H     4.2536187   -0.7847935    1.6991333 
