48
 energy: -9.067073957712 gnorm: 0.000671106884 xtb: 6.6.0 (2ccbbd7)
C           -2.38521259833242       -1.71408424652888        2.22659043115765
C           -1.20052587545871       -1.50673341345792        1.55996992690923
C           -3.59696626156392       -1.72667554221862        1.53476968251288
C           -3.57170194633674       -1.52219928614977        0.15548564420290
C           -2.38342754982490       -1.31615112206086       -0.50374589240216
C           -1.18002675360879       -1.31091901901496        0.18680011193974
H           -0.27099278437149       -1.49366614531750        2.10300965723424
H           -4.50556090947049       -1.53029208421522       -0.37758483392954
H           -2.37882166137503       -1.15559347707822       -1.56821433048926
H           -2.38955145891331       -1.86788910081615        3.29079931116628
C            0.11054081889740       -1.04953454866417       -0.52450244895827
C            0.60615399137741        0.38976682169794       -0.36507551733335
H           -0.00145713605039       -1.26827584407566       -1.59033058761928
H            0.87999377673493       -1.74097745060414       -0.16462700055577
C            1.94707318775950        0.57125160776930       -1.04116214304451
O           -4.80526153255674       -1.93229489887309        2.17380239480204
H           -4.65853195947971       -2.05687031175048        3.13643687820294
O            2.73352871819213       -0.35344051702012       -1.07794650253844
N           -0.35626724266940        1.35858773067370       -0.87491823191480
H            0.75083032403845        0.60067762536243        0.70580947190904
H           -0.48582211800844        1.20989565753249       -1.86705184844602
H           -1.25659602428952        1.22689195280251       -0.43293940688037
N            2.21043546610753        1.81033730702870       -1.57793291375056
C            3.55069940181015        2.17639293446738       -2.03543298282343
H            1.60510047025809        2.60120528766216       -1.32927357282090
C            3.53193862295014        3.55883386478087       -2.61918606917039
O            4.60580543038754        4.37790122545116       -2.42622459471436
O            2.42762844138931        3.92701865943793       -3.35170324974241
H            1.76991258686640        3.19251200578631       -3.35783957719166
C            4.11524095911251        1.15377417157413       -3.04103065601744
H            4.18843917195925        2.17979324653917       -1.13948798932048
C            5.58409948155680        0.89474754419013       -2.91904533475903
H            3.87642042403655        1.47191728115733       -4.06057492940460
H            3.58958278811920        0.20406895028978       -2.89416435312481
C            6.63000283267939        1.82566923678038       -2.63762321738823
C            6.64956354917035        3.20071311713573       -2.37283803620943
C            7.83927752220976        3.81842537707901       -2.12863198011706
C            9.04437780118636        3.09713463891454       -2.13571511554277
C            9.05848656657897        1.75263136200095       -2.38808109629344
C            7.84213895879949        1.10547927884101       -2.64230677707335
H            5.58772398484177        3.81854033164520       -2.38327344879113
H            7.85261244558122        4.87706440583173       -1.92968455758939
H            9.97006651201157        3.61227246646993       -1.93954258609796
H            9.97423403923838        1.18922047534712       -2.39373589452522
N            7.54001098633144       -0.21405524352608       -2.92292924727728
C            6.18222266168994       -0.33034489220379       -3.08659939900510
H            8.22449556447561       -0.97057262623673       -2.97740901639454
H            5.66632298981298       -1.25068058905184       -3.30851371650069
