48
Energy =
C     0.7192454    1.6056452   -5.2833498 
C     0.6483898    2.4664791   -4.2362552 
C     0.0408290    0.4285859   -5.2460100 
C    -0.7063430    0.1206825   -4.1613703 
C    -0.7785839    0.9757139   -3.1101708 
C    -0.1071815    2.1582020   -3.1445949 
H     1.2178437    3.3966718   -4.2659627 
H    -1.2395599   -0.8237746   -4.1426945 
H    -1.3741510    0.7046335   -2.2421069 
H     1.3290664    1.8548969   -6.1455656 
C    -0.1513513    3.0952390   -1.9561608 
C     0.9640390    2.7779898   -0.9332725 
H    -1.1436818    3.0229316   -1.4584819 
H    -0.0549132    4.1513103   -2.2978432 
C     2.3460742    2.8396677   -1.5778723 
O     0.1051790   -0.4870969   -6.2999921 
H     0.6746248   -0.1819610   -7.0822403 
O     2.7022643    4.0268063   -2.2094744 
N     0.8735222    3.7055012    0.2047425 
H     0.8148905    1.7439568   -0.5472538 
H     1.0187088    4.6910494   -0.1258279 
H    -0.0791680    3.6534882    0.6359888 
N     3.0384708    1.6060202   -1.8812966 
C     4.3757518    1.5380228   -2.5272675 
H     2.5203507    0.7161477   -1.7062426 
C     4.9824510    2.8771250   -2.9654337 
O     4.8435151    3.3065770   -4.2835799 
O     5.7298700    3.6573619   -2.0810668 
H     5.6099463    3.3539851   -1.1261099 
C     4.3154042    0.5446164   -3.7149532 
H     5.0918115    1.1343051   -1.7795187 
C     4.0968559   -0.8838063   -3.2660207 
H     5.2600306    0.5858975   -4.3028849 
H     3.5022848    0.8553249   -4.4082271 
C     5.0051570   -1.6965243   -2.7041795 
C     6.3145336   -1.4746535   -2.4209126 
C     7.0307777   -2.4797948   -1.8402151 
C     6.4350780   -3.6778689   -1.5565741 
C     5.1194241   -3.8784928   -1.8531963 
C     4.4321404   -2.8685425   -2.4267008 
H     6.7902715   -0.5259326   -2.6515244 
H     8.0813886   -2.3284559   -1.6039023 
H     7.0130049   -4.4745726   -1.0949902 
H     4.6323667   -4.8233602   -1.6374837 
N     3.0660008   -2.8707360   -2.8158440 
C     2.9306264   -1.5479089   -3.3506530 
H     2.3510677   -3.6286868   -2.7284029 
H     2.0106557   -1.1462686   -3.7662312 
