48
Energy =
C     3.3540853   -2.6474309   -3.2478603 
C     2.4343213   -2.5022215   -2.2597591 
C     3.0174979   -2.3846717   -4.5384071 
C     1.7585238   -1.9890867   -4.8330543 
C     0.8335438   -1.8479566   -3.8499881 
C     1.1676050   -2.0986365   -2.5544672 
H     2.7191522   -2.7036184   -1.2287290 
H     1.5018041   -1.7862865   -5.8669734 
H    -0.1728357   -1.5294360   -4.1075410 
H     4.3605373   -2.9697825   -3.0031977 
C     0.1452386   -1.9227561   -1.4494798 
C     0.1000431   -0.4859282   -0.8703380 
H     0.3662740   -2.6353850   -0.6220803 
H    -0.8637077   -2.2073918   -1.8201856 
C     1.4410654   -0.0413184   -0.3044468 
O     3.9443867   -2.5117955   -5.5776472 
H     4.8677772   -2.7985170   -5.2714571 
O     2.1076857   -0.8740723    0.5893810 
N    -0.4305226    0.4641438   -1.8653134 
H    -0.5830427   -0.4899582    0.0106143 
H     0.2539264    0.5823061   -2.6496469 
H    -1.3269489    0.1061490   -2.2705348 
N     1.8496652    1.3283958   -0.4004582 
C     3.2746108    1.5865659   -0.6720459 
H     1.1373391    2.0830198   -0.2617483 
C     3.6589742    3.0198860   -0.3112256 
O     2.7952479    4.0636058   -0.6227935 
O     4.9005668    3.3291374    0.2468357 
H     5.4872452    2.5164407    0.3610802 
C     3.5533931    1.2947948   -2.1606216 
H     3.8907395    0.9218076   -0.0242981 
C     5.0283518    1.3724685   -2.4806999 
H     2.9796286    2.0123858   -2.7909559 
H     3.1830130    0.2832461   -2.4294324 
C     5.9606903    0.4545115   -2.1850675 
C     5.8339360   -0.7400664   -1.5534622 
C     6.9544394   -1.4929889   -1.3602492 
C     8.1717951   -1.0420880   -1.7911959 
C     8.2756747    0.1662800   -2.4148222 
C     7.1514887    0.8903224   -2.5970859 
H     4.8695708   -1.0903111   -1.1982171 
H     6.8805085   -2.4530861   -0.8548648 
H     9.0616942   -1.6455638   -1.6298454 
H     9.2345003    0.5435764   -2.7540468 
N     7.0425192    2.1741315   -3.1951437 
C     5.6339319    2.4173448   -3.0709171 
H     7.7872060    2.7765402   -3.6151280 
H     5.1340468    3.3349400   -3.3786919 
