48
 energy: -9.286562382677 gnorm: 0.000804318085 xtb: 6.6.0 (2ccbbd7)
C           -3.28639015055920       -2.16442799212963        0.11630862942333
C           -1.95368864160140       -1.97315186790712       -0.16179972549165
C           -3.85849496805122       -1.61439063195289        1.26380894465185
C           -3.04403055947603       -0.86746739694610        2.11446434438327
C           -1.71262272684777       -0.68006742074993        1.82907053484587
C           -1.14604344783422       -1.23403913427773        0.69078042830664
H           -1.52385803046915       -2.39694544014151       -1.05314340510151
H           -3.48607438270052       -0.44081859572995        2.99700362424520
H           -1.09573338604951       -0.09545220922369        2.48977617241753
H           -3.90257625752018       -2.74046713575831       -0.55046718882997
C            0.29257457170451       -0.98764798319019        0.35966742408413
C            0.54152198928373        0.39941991889184       -0.23721148128198
H            0.64589273574789       -1.74385960817674       -0.34712956322991
H            0.90870488560635       -1.11551439594148        1.25599475978478
C            2.01372114070317        0.61395160694313       -0.50368221206520
O           -5.19426268195492       -1.78771026644836        1.57200984077677
H           -5.63080663991999       -2.33138558801173        0.88107718710428
O            2.84584631649457        0.05971369931535        0.18613313374508
N           -0.23074852539156        0.61548089567933       -1.45251406254210
H            0.22832105972119        1.16334991337505        0.49125168266412
H            0.05982744606072       -0.04576905838344       -2.16076951360600
H           -1.21563881599686        0.46068808257676       -1.28124240952292
N            2.35195499629225        1.45250502456821       -1.54095782761820
C            3.72996255250161        1.59159846405553       -1.97082874436456
H            1.67221435692150        1.69608128588954       -2.27976148740064
C            3.74457469572660        2.54513538485403       -3.14258481662397
O            2.95204449647134        2.31338239560552       -4.02935060529023
O            4.64556174552198        3.56009079010050       -3.13770820446176
H            5.18177936939184        3.55925928805931       -2.31525136937826
C            4.31438610365676        0.23360465790465       -2.35207911835528
H            4.29609428893221        2.01750902622578       -1.13218144999787
C            5.74307020527850        0.26503799389693       -2.78234364163869
H            3.70468593215928       -0.19273365874006       -3.15412437309701
H            4.20708325421152       -0.44127640729026       -1.49638227201117
C            6.25179787833007        0.71686636886383       -4.03772491460391
C            5.64509485394491        1.28566087121707       -5.17171127208515
C            6.42746928246390        1.60878408950355       -6.24460743258860
C            7.81306493370760        1.38232894954960       -6.22709911919952
C            8.42793916277468        0.84027479619004       -5.13189020751232
C            7.64379770112881        0.50442962416830       -4.02101488150888
H            4.59338365788179        1.51316891082495       -5.15684983242775
H            5.97625427828301        2.05981242026075       -7.11287605606672
H            8.40139399511337        1.64915247848591       -7.08936232440261
H            9.48907603268872        0.66889700453574       -5.10756851601090
N            7.96605977641899       -0.04420558057836       -2.79254056294250
C            6.81738938587653       -0.18264353993253       -2.05393400501988
H            8.90981123603754       -0.30388246254599       -2.50014549394442
H            6.76894732021152       -0.59711595192061       -1.05984668483977
