48
Energy =
C     1.6618810    3.3916699   -4.6407630 
C     1.0593992    3.3675475   -3.4248311 
C     1.2618605    2.5347950   -5.6170568 
C     0.2588184    1.6612366   -5.3707145 
C    -0.3452447    1.6313124   -4.1554579 
C     0.0516353    2.4865316   -3.1746034 
H     1.4047119    4.0410071   -2.6391658 
H    -0.0489105    0.9812626   -6.1577008 
H    -1.1405766    0.9136587   -3.9720671 
H     2.4740733    4.0876663   -4.8243061 
C    -0.5830175    2.4219263   -1.8016994 
C     0.1188961    1.3861486   -0.8929361 
H    -1.6596095    2.1644714   -1.9022942 
H    -0.5437057    3.4214542   -1.3124451 
C     1.5833915    1.7285285   -0.6611716 
O     1.8687407    2.5249729   -6.8762690 
H     2.6089041    3.2104390   -6.9834035 
O     1.9279691    2.8963449   -0.4220914 
N    -0.5936341    1.2778026    0.3883158 
H     0.0930174    0.3931972   -1.3952516 
H    -0.5620891    2.2036771    0.8796738 
H    -1.5989348    1.0419806    0.2195117 
N     2.6066642    0.7386909   -0.8536046 
C     3.8368614    1.2528887   -1.4827366 
H     2.4385895   -0.2665805   -0.6234467 
C     3.8471324    2.7812318   -1.4308393 
O     4.7866912    3.5060667   -2.1575378 
O     2.9897005    3.3820805   -0.7635043 
H     2.7487957    3.0262824    0.1405364 
C     3.9276646    0.7330119   -2.9321627 
H     4.7210404    0.9166354   -0.8993262 
C     4.0904528   -0.7692395   -2.9783141 
H     4.7966952    1.2017739   -3.4471845 
H     3.0264296    1.0456813   -3.4999076 
C     3.1207678   -1.6844816   -3.1369658 
C     1.7854876   -1.5180641   -3.3178508 
C     1.0043802   -2.6283930   -3.4460879 
C     1.5632455   -3.8752921   -3.3914109 
C     2.9066462   -4.0187153   -3.2072881 
C     3.6579518   -2.9042503   -3.0842608 
H     1.3417120   -0.5304354   -3.3572230 
H    -0.0677057   -2.5218312   -3.5917213 
H     0.9344634   -4.7561284   -3.4937883 
H     3.3656307   -5.0002495   -3.1587093 
N     5.0615285   -2.8329474   -2.8763727 
C     5.2583968   -1.4143490   -2.8136942 
H     5.7589704   -3.6073313   -2.7903227 
H     6.2195711   -0.9335102   -2.6453283 
