48
Energy =
C     2.0750195   -4.7439940   -0.4236857 
C     1.2138868   -3.7014228   -0.3143104 
C     2.7049906   -4.9895156   -1.6030833 
C     2.4766433   -4.1807320   -2.6630143 
C     1.6172034   -3.1353527   -2.5585745 
C     0.9706565   -2.8971798   -1.3855062 
H     0.7099219   -3.5237056    0.6319045 
H     2.9908786   -4.3787505   -3.5966547 
H     1.4442324   -2.4987730   -3.4227438 
H     2.2548307   -5.3834031    0.4329634 
C    -0.0257476   -1.7653651   -1.2683349 
C     0.5911982   -0.5004618   -0.6177744 
H    -0.8873562   -2.1270935   -0.6660767 
H    -0.4544840   -1.5136512   -2.2650112 
C     1.3995395    0.3578767   -1.5991986 
O     3.5960799   -6.0593484   -1.7481837 
H     3.6581572   -6.6526230   -0.9289779 
O     1.3824737    0.0616107   -2.9603217 
N    -0.4770622    0.2973890    0.0058370 
H     1.3012032   -0.8118752    0.1798367 
H    -1.1848777    0.5626052   -0.7215451 
H    -0.9678885   -0.2680501    0.7375673 
N     1.8907487    1.6543164   -1.1967482 
C     3.3416582    1.9436392   -1.3717310 
H     1.6070660    1.8444593   -0.2072900 
C     3.5148949    3.3381988   -1.9589794 
O     4.5144532    4.1609892   -1.4554981 
O     2.7768421    3.7731128   -3.0587817 
H     2.0553402    3.1057924   -3.3001523 
C     4.1313034    0.9254724   -2.2450242 
H     3.8295831    2.0094036   -0.3734781 
C     4.4008572   -0.4278015   -1.6069873 
H     5.1278029    1.3613476   -2.4861402 
H     3.6154915    0.7935598   -3.2227102 
C     4.9561832   -1.4746412   -2.2381223 
C     5.3301822   -1.6040888   -3.5379591 
C     5.8956490   -2.7795421   -3.9359490 
C     6.0845667   -3.7930767   -3.0383586 
C     5.7099109   -3.6370222   -1.7375416 
C     5.1424945   -2.4693683   -1.3703632 
H     5.1843644   -0.8007420   -4.2541869 
H     6.1958645   -2.9132101   -4.9726382 
H     6.5258284   -4.7323509   -3.3629360 
H     5.8428072   -4.4373281   -1.0176057 
N     4.6883663   -2.1053479   -0.0760704 
C     4.2361612   -0.7647513   -0.3106059 
H     4.7043942   -2.6695819    0.8045495 
H     3.8332488   -0.1194690    0.4656459 
