48
Energy =
C    -2.8168113   -1.6135051   -1.0213004 
C    -1.5164923   -1.5175127   -1.3970067 
C    -3.1951404   -1.2458615    0.2320814 
C    -2.2679260   -0.7832274    1.1013227 
C    -0.9660547   -0.6851209    0.7308859 
C    -0.5815155   -1.0561459   -0.5208240 
H    -1.2309273   -1.8092921   -2.4040029 
H    -2.5820843   -0.4910441    2.0972828 
H    -0.2353036   -0.3077086    1.4417141 
H    -3.5530176   -1.9832154   -1.7264767 
C     0.8664257   -0.9273375   -0.9393027 
C     1.2360343    0.5285897   -1.3085869 
H     1.0870121   -1.6059506   -1.7917589 
H     1.5118064   -1.2699857   -0.0991969 
C     2.7376347    0.6876873   -1.4716534 
O    -4.5272095   -1.3316050    0.6504325 
H    -5.1584666   -1.6903962   -0.0572738 
O     3.3641950    1.4114633   -0.6822312 
N     0.5252532    0.9614837   -2.5205931 
H     0.9522267    1.2028102   -0.4651474 
H     0.6664094    0.2636785   -3.2866978 
H    -0.5005834    1.0180437   -2.3256922 
N     3.4548488    0.0302977   -2.5377841 
C     4.6811779    0.7270003   -2.9727613 
H     3.1141377   -0.8587568   -2.9652461 
C     4.9972413    1.8866692   -2.0287506 
O     5.9622247    2.8324477   -2.3646457 
O     4.4160177    1.9646350   -0.9375918 
H     4.2867371    1.1238838   -0.4138525 
C     4.5704593    1.1533646   -4.4607953 
H     5.5414034    0.0310375   -2.8707031 
C     3.1776126    1.5820976   -4.8816779 
H     4.8777202    0.2885818   -5.0887599 
H     5.2953988    1.9641600   -4.6958050 
C     2.5700395    2.7564921   -4.6415450 
C     3.0228253    3.8618030   -3.9963970 
C     2.1896666    4.9357254   -3.8827618 
C     0.9318425    4.8937222   -4.4164624 
C     0.5008871    3.7783300   -5.0701876 
C     1.3427813    2.7281061   -5.1675724 
H     4.0213684    3.9064111   -3.5787014 
H     2.5284326    5.8283270   -3.3617172 
H     0.2728346    5.7527671   -4.3187882 
H    -0.4931534    3.7286401   -5.5009292 
N     1.0896387    1.4859920   -5.8090843 
C     2.3257894    0.8016366   -5.5722162 
H     0.2327341    1.1632239   -6.3137376 
H     2.5360049   -0.2129482   -5.9002331 
