48
Energy =
C     1.1150971    6.0980100   -0.0664720 
C     0.9814720    5.1614905   -1.0390979 
C     0.4841097    5.9383479    1.1274519 
C    -0.2753362    4.8401311    1.3398586 
C    -0.4104193    3.8995790    0.3721807 
C     0.2183457    4.0540285   -0.8261643 
H     1.5004744    5.3000491   -1.9843875 
H    -0.7717822    4.7229404    2.2961166 
H    -1.0219117    3.0228015    0.5652565 
H     1.7316819    6.9721702   -0.2460733 
C     0.0786508    3.0013383   -1.9073825 
C     1.2061241    1.9390105   -1.8910015 
H     0.0572657    3.4981632   -2.9033473 
H    -0.9050398    2.4908897   -1.8120510 
C     2.5753164    2.5280906   -2.2038190 
O     0.5974434    6.8858173    2.1507195 
H     1.2007976    7.6679592    1.9194068 
O     3.3396552    3.1303425   -1.2080909 
N     1.2115724    1.1794021   -0.6302318 
H     0.9940303    1.2223003   -2.7160258 
H     1.5085384    1.8061133    0.1561718 
H     0.2460983    0.8383995   -0.4158156 
N     3.0409807    2.5747286   -3.5581606 
C     4.3723215    1.9940784   -3.8150221 
H     2.4326261    2.9706879   -4.3100658 
C     4.8399451    2.2595195   -5.2369226 
O     5.6955255    3.3235967   -5.5003851 
O     4.4255351    1.4378894   -6.2919410 
H     3.6463586    0.6723108   -5.9559100 
C     4.3812440    0.4800440   -3.4975113 
H     5.1216578    2.4988788   -3.1625850 
C     3.2187102   -0.2730931   -4.1315158 
H     4.3941117    0.3635867   -2.3962499 
H     5.3260418    0.0278312   -3.8720503 
C     2.4472499   -1.1857353   -3.5185287 
C     2.4488754   -1.5835312   -2.2147200 
C     1.5603391   -2.5369668   -1.8190173 
C     0.6932796   -3.0843802   -2.7177914 
C     0.7111220   -2.6800014   -4.0168999 
C     1.5975471   -1.7300363   -4.3895887 
H     3.1234033   -1.1567433   -1.4810389 
H     1.5423998   -2.8617500   -0.7811172 
H    -0.0120141   -3.8469287   -2.3965284 
H     0.0300936   -3.1107810   -4.7430872 
N     1.7458376   -1.2120426   -5.7057285 
C     2.7883200   -0.1741551   -5.5938299 
H     1.1979924   -1.5387029   -6.5398278 
H     2.8276217    0.1499985   -6.6662903 
