48
Energy =
C     3.2663343    2.1295020    1.3282265 
C     2.1144566    2.6254868    0.8075644 
C     3.2954930    0.8745643    1.8507469 
C     2.1669883    0.1302348    1.8637893 
C     1.0139317    0.6187773    1.3414098 
C     0.9824112    1.8669234    0.7992312 
H     2.1163637    3.6214648    0.3664293 
H     2.2023215   -0.8665385    2.2891867 
H     0.1212002   -0.0006050    1.3495680 
H     4.1683205    2.7332045    1.3066352 
C    -0.2888767    2.3935747    0.1639927 
C    -0.4173069    2.0487582   -1.3428288 
H    -0.3317365    3.5002119    0.2860500 
H    -1.1745536    2.0028583    0.7111424 
C     0.7384259    2.6030625   -2.1636733 
O     4.4700750    0.3229421    2.3715437 
H     5.2786395    0.9298057    2.2813639 
O     0.9999977    3.9671418   -2.1381744 
N    -0.6119974    0.6005383   -1.5403481 
H    -1.3152215    2.5776009   -1.7389151 
H     0.2549915    0.0821082   -1.2635004 
H    -1.3954898    0.2559337   -0.9374880 
N     1.5689439    1.7511460   -2.9634015 
C     2.9371123    1.5127560   -2.4698800 
H     1.1872194    1.3802878   -3.8624806 
C     3.8448313    2.7322281   -2.6551282 
O     4.6148475    3.1766335   -1.5848510 
O     3.9777126    3.3712847   -3.8887560 
H     3.2881703    3.0296072   -4.5404979 
C     3.5033523    0.2498906   -3.1464602 
H     2.8961087    1.3093101   -1.3796019 
C     4.7908586   -0.1923337   -2.4833822 
H     3.6554705    0.4223735   -4.2336693 
H     2.7589207   -0.5733955   -3.0590325 
C     6.0441857    0.1172228   -2.8545052 
C     6.4874264    0.8467072   -3.9109498 
C     7.8313008    1.0301144   -4.0540275 
C     8.7027112    0.4908364   -3.1486308 
C     8.2349697   -0.2332006   -2.0925224 
C     6.9014334   -0.4030814   -1.9740379 
H     5.7995713    1.2884157   -4.6250115 
H     8.2100901    1.6158126   -4.8881115 
H     9.7719240    0.6469591   -3.2666583 
H     8.9113078   -0.6590247   -1.3593462 
N     6.2135946   -1.0948510   -0.9417086 
C     4.8516767   -0.9040478   -1.3436147 
H     6.5939800   -1.6154260   -0.1182820 
H     3.9910308   -1.2498832   -0.7756164 
