48
Energy =
C    -1.2071443    3.2437734    2.6684541 
C    -0.3704215    3.8876122    1.8157049 
C    -1.9302629    2.1748812    2.2398178 
C    -1.8106844    1.7577807    0.9592083 
C    -0.9772450    2.3991187    0.1018586 
C    -0.2508578    3.4703660    0.5247845 
H     0.2023237    4.7394994    2.1732901 
H    -2.3890669    0.9018909    0.6290223 
H    -0.8940138    2.0441433   -0.9221867 
H    -1.2958374    3.5853671    3.6941027 
C     0.6957791    4.1855487   -0.4169324 
C     2.1707251    3.7699652   -0.1788708 
H     0.5781315    5.2807107   -0.2628502 
H     0.4172559    3.9964461   -1.4792329 
C     2.5010822    2.3762494   -0.7050292 
O    -2.8009894    1.4893192    3.0930428 
H    -2.8332923    1.8629022    4.0350963 
O     1.5755044    1.6511127   -1.4501246 
N     3.0701665    4.7702276   -0.7714737 
H     2.3663412    3.7334964    0.9168277 
H     2.8935496    4.8464377   -1.8032753 
H     2.8959961    5.7110320   -0.3482064 
N     3.7424852    1.7520213   -0.3438034 
C     4.7332745    1.4864958   -1.4056101 
H     3.9311950    1.5401674    0.6607460 
C     5.0368290    2.7269634   -2.2569141 
O     4.1903354    3.0815570   -3.3034054 
O     6.1286822    3.5532542   -1.9815674 
H     6.6205332    3.2647853   -1.1494821 
C     4.2706445    0.2738198   -2.2415300 
H     5.6864077    1.2003027   -0.9088970 
C     5.3835385   -0.2706012   -3.1117988 
H     3.3809013    0.5409151   -2.8517726 
H     3.9327506   -0.5321235   -1.5532896 
C     5.5679316   -0.0678257   -4.4276381 
C     4.8205853    0.6329000   -5.3196768 
C     5.2369930    0.6836771   -6.6174299 
C     6.3795579    0.0391994   -7.0024496 
C     7.1133303   -0.6602414   -6.0914456 
C     6.6815646   -0.6950650   -4.8131627 
H     3.9130515    1.1481446   -5.0217392 
H     4.6576487    1.2430413   -7.3480099 
H     6.7052094    0.0865311   -8.0384361 
H     8.0227577   -1.1760434   -6.3799684 
N     7.2970261   -1.3602207   -3.7193325 
C     6.3940570   -1.0324938   -2.6566645 
H     8.1711848   -1.9333180   -3.6974571 
H     6.5190975   -1.3526781   -1.6253418 
