48
Energy =
C    -1.4840813    5.8003102   -0.7886155 
C    -0.9309006    5.4064890   -1.9636569 
C    -0.7907816    5.6639238    0.3732604 
C     0.4526412    5.1335700    0.3506119 
C     1.0112774    4.7405743   -0.8213776 
C     0.3213664    4.8710061   -1.9879082 
H    -1.4990533    5.5218632   -2.8827084 
H     0.9938323    5.0248694    1.2836473 
H     2.0089851    4.3102931   -0.8173582 
H    -2.4823278    6.2244003   -0.7806343 
C     0.9408796    4.4291345   -3.2983079 
C     0.6614529    2.9466741   -3.6651197 
H     2.0397980    4.6108595   -3.2682210 
H     0.5726849    5.0792709   -4.1210658 
C     1.2969303    1.9547149   -2.7007049 
O    -1.3309308    6.0624032    1.6006067 
H    -2.2703034    6.4385220    1.5343337 
O     0.8176003    1.8078274   -1.4029927 
N    -0.7812102    2.6975230   -3.8185258 
H     1.1519039    2.7510751   -4.6484728 
H    -1.2449273    2.7288055   -2.8773267 
H    -1.2181840    3.4357622   -4.4172506 
N     2.4840742    1.2490440   -3.0764679 
C     3.7062522    1.5789199   -2.3227472 
H     2.4390895    0.5426364   -3.8458227 
C     4.1770823    2.9889206   -2.6458719 
O     4.1824068    3.4301531   -3.9626375 
O     4.5849198    3.8740775   -1.6494490 
H     4.6588174    3.4325441   -0.7452521 
C     4.8104605    0.5499932   -2.6476746 
H     3.4871676    1.5478386   -1.2308483 
C     4.4954954   -0.8771640   -2.2266749 
H     5.7559780    0.8561954   -2.1461969 
H     4.9985537    0.5678952   -3.7454079 
C     5.2714069   -1.9431117   -2.4809950 
C     6.4534992   -2.0146932   -3.1460546 
C     7.0544091   -3.2329617   -3.2712175 
C     6.4721569   -4.3484204   -2.7353457 
C     5.2855200   -4.2519936   -2.0709078 
C     4.7110933   -3.0357229   -1.9613024 
H     6.9165542   -1.1291222   -3.5717787 
H     8.0010107   -3.3176109   -3.7997691 
H     6.9568917   -5.3160214   -2.8389499 
H     4.8101544   -5.1261587   -1.6390084 
N     3.4898257   -2.7188858   -1.3124548 
C     3.4225288   -1.3029218   -1.5262940 
H     2.8191049   -3.3450292   -0.8108723 
H     2.6040769   -0.6795987   -1.1720488 
