48
Energy =
C    -1.0388665    3.6580086   -2.3603446 
C     0.2549533    3.5596931   -2.7584571 
C    -2.0339447    3.7357750   -3.2836583 
C    -1.7267414    3.7133285   -4.6003834 
C    -0.4349723    3.6137772   -5.0037826 
C     0.5662624    3.5370201   -4.0839550 
H     1.0386720    3.4957210   -2.0085662 
H    -2.5294905    3.7740842   -5.3271232 
H    -0.2091789    3.5928424   -6.0664755 
H    -1.2753079    3.6723194   -1.3018309 
C     2.0082447    3.4122183   -4.5322535 
C     2.5091439    1.9469833   -4.5964699 
H     2.6651463    3.9988825   -3.8510820 
H     2.1413160    3.8838298   -5.5306057 
C     2.5510345    1.2748055   -3.2229201 
O    -3.3769148    3.8402756   -2.9075415 
H    -3.5255410    3.8359549   -1.9042744 
O     1.7933721    0.1308430   -2.9793333 
N     1.7269042    1.1696229   -5.5734311 
H     3.5615881    1.9603113   -4.9548872 
H     0.7551662    1.0127320   -5.2140581 
H     1.6639034    1.6856735   -6.4810548 
N     3.2207706    1.8968181   -2.1042702 
C     4.7021025    1.8203400   -2.1788105 
H     2.9066403    1.3701255   -1.2553290 
C     5.2746849    2.9243917   -3.0652196 
O     5.9448291    2.6179326   -4.2434506 
O     5.1070271    4.2668357   -2.7311992 
H     4.5768917    4.3700522   -1.8784064 
C     5.1921177    0.3927083   -2.5491614 
H     5.1031446    2.0593445   -1.1669181 
C     6.6483143    0.1889599   -2.1932288 
H     5.0477890    0.2060090   -3.6369950 
H     4.5755014   -0.3706358   -2.0247414 
C     7.1398289   -0.1475868   -0.9909599 
C     6.4898070   -0.4106069    0.1719855 
C     7.2324829   -0.7260989    1.2717474 
C     8.5973049   -0.7704509    1.1942943 
C     9.2279973   -0.4990809    0.0162965 
C     8.4713786   -0.1922212   -1.0581341 
H     5.4061410   -0.3733298    0.2359885 
H     6.7369003   -0.9429694    2.2151937 
H     9.1823586   -1.0214330    2.0756594 
H    10.3097026   -0.5257544   -0.0613602 
N     8.9256081    0.1336638   -2.3638338 
C     7.6799139    0.3740802   -3.0356303 
H     9.9018019    0.1815024   -2.7362024 
H     7.5838710    0.6926505   -4.0739680 
