48
Energy =
C    -0.6304048    4.3929993    0.7911374 
C    -0.7123033    3.0647507    0.5245599 
C     0.2176777    4.8464700    1.7525447 
C     0.9831794    3.9666790    2.4374482 
C     0.9047116    2.6376454    2.1757793 
C     0.0487534    2.1772578    1.2222449 
H    -1.3894272    2.7170858   -0.2514187 
H     1.6639008    4.3406612    3.1947051 
H     1.5383899    1.9474220    2.7286465 
H    -1.2431378    5.0923763    0.2330518 
C    -0.0200040    0.6989326    0.9047455 
C     0.9166142    0.3261810   -0.2646912 
H    -1.0674293    0.4263365    0.6496258 
H     0.2474637    0.0978243    1.8040005 
C     2.3770018    0.5741910    0.0876486 
O     0.3214321    6.2078513    2.0553376 
H    -0.2632728    6.8062735    1.4825343 
O     2.9346508   -0.0417704    1.2056100 
N     0.7031873   -1.0765204   -0.6533930 
H     0.6716931    0.9722363   -1.1390337 
H     0.9146432   -1.7018720    0.1627782 
H    -0.3011289   -1.2261448   -0.9094490 
N     3.1087200    1.6176600   -0.5664769 
C     4.5038155    1.3210951   -0.9425123 
H     2.6303858    2.5179862   -0.8021733 
C     5.3023796    2.5906353   -1.2192743 
O     4.6619974    3.7387867   -1.6707609 
O     6.6949874    2.6046305   -1.1180707 
H     7.0671199    1.7283953   -0.7830119 
C     4.5462263    0.3395997   -2.1387553 
H     5.0130092    0.8424155   -0.0743897 
C     3.7591769    0.8284005   -3.3383662 
H     4.1345697   -0.6413008   -1.8099385 
H     5.5995582    0.1434613   -2.4358027 
C     4.1830902    1.6514205   -4.3130473 
C     5.3945510    2.2370812   -4.4992064 
C     5.5684992    3.0368267   -5.5901842 
C     4.5443047    3.2314699   -6.4746242 
C     3.3393902    2.6270705   -6.2733846 
C     3.1901130    1.8442840   -5.1841584 
H     6.2122069    2.0872545   -3.8011817 
H     6.5260200    3.5259253   -5.7531063 
H     4.6908242    3.8723080   -7.3404090 
H     2.5173490    2.7690916   -6.9665424 
N     2.0287024    1.1208128   -4.8025798 
C     2.4838801    0.4893988   -3.5987611 
H     1.0979974    1.0648927   -5.2762911 
H     1.8851213   -0.1896639   -2.9962672 
