48
Energy =
C    -1.2649523    0.2087975    2.8545435 
C    -0.7278539   -0.0375441    1.6327945 
C    -0.7239794    1.1621346    3.6595260 
C     0.3510075    1.8641466    3.2346239 
C     0.8918371    1.6223320    2.0137856 
C     0.3566733    0.6667192    1.2057717 
H    -1.1739614   -0.7992422    0.9988440 
H     0.7719218    2.6232227    3.8847052 
H     1.7544045    2.1979365    1.6887098 
H    -2.1286375   -0.3575437    3.1855703 
C     0.9536830    0.4058320   -0.1590958 
C     0.5261803    1.4721914   -1.1975259 
H     0.6629697   -0.6022933   -0.5177117 
H     2.0618660    0.3872423   -0.0593900 
C     1.4332118    1.4504813   -2.4275012 
O    -1.2522126    1.4397414    4.9245557 
H    -2.0599175    0.8763706    5.1662876 
O     0.8941100    1.3555795   -3.7075365 
N    -0.8935786    1.2983250   -1.5516347 
H     0.6604126    2.4899664   -0.7660687 
H    -1.0456034    0.3515159   -1.9690831 
H    -1.4943745    1.3887992   -0.7005075 
N     2.8303141    1.7580284   -2.2797405 
C     3.8862542    1.0491078   -3.0461429 
H     3.0938945    2.4341144   -1.5289179 
C     4.5877055    2.0042386   -4.0150501 
O     4.7373976    1.6549346   -5.3537416 
O     5.1866737    3.1842232   -3.5726973 
H     4.9906856    3.3641017   -2.6011641 
C     3.3983935   -0.2323755   -3.7803653 
H     4.6801637    0.7443786   -2.3313212 
C     2.8239386   -1.2884407   -2.8579094 
H     4.2622183   -0.6926611   -4.3101691 
H     2.6938158    0.0626937   -4.5860229 
C     1.6100901   -1.8683412   -2.9309331 
C     0.5698913   -1.6341315   -3.7746089 
C    -0.5723385   -2.3646321   -3.6181304 
C    -0.6572722   -3.3117896   -2.6367927 
C     0.3981331   -3.5347649   -1.8048441 
C     1.5162980   -2.7999256   -1.9780331 
H     0.6196373   -0.8691415   -4.5453906 
H    -1.4233265   -2.1872095   -4.2733681 
H    -1.5717278   -3.8891002   -2.5174353 
H     0.3461754   -4.2820250   -1.0192097 
N     2.7096660   -2.8702479   -1.2129671 
C     3.5065006   -1.8663354   -1.8525553 
H     2.9438422   -3.4891242   -0.4015578 
H     4.5321367   -1.6321799   -1.5748790 
