48
Energy =
C    -1.4371230    3.4520472   -0.2675328 
C    -0.5142198    3.5142479   -1.2603799 
C    -2.7242474    3.1174369   -0.5504142 
C    -3.0790401    2.8459535   -1.8261989 
C    -2.1610867    2.9050756   -2.8228769 
C    -0.8691548    3.2368589   -2.5461579 
H     0.5130497    3.7756179   -1.0143656 
H    -4.1083379    2.5798564   -2.0384107 
H    -2.4688641    2.6840971   -3.8409690 
H    -1.1415872    3.6677529    0.7535238 
C     0.1619948    3.3075768   -3.6539542 
C     0.8512425    1.9501228   -3.9757248 
H     0.9292943    4.0730444   -3.3924152 
H    -0.3123745    3.7032427   -4.5775249 
C     1.5973476    1.3454078   -2.7916421 
O    -3.7013777    3.0484889    0.4478359 
H    -3.3515196    3.2461650    1.3791778 
O     0.9157639    0.9105351   -1.6603307 
N    -0.1060824    0.9912129   -4.5608768 
H     1.6536548    2.1556859   -4.7284602 
H    -0.7812207    0.6666025   -3.8259581 
H    -0.6555040    1.4367858   -5.3329165 
N     3.0239091    1.2258536   -2.8254156 
C     3.7865510    2.2212289   -2.0502100 
H     3.4517708    0.4493278   -3.3755742 
C     3.4951704    3.6375188   -2.5339689 
O     3.3127532    3.8801623   -3.8902853 
O     3.3468809    4.7012094   -1.6486202 
H     3.5621172    4.4372133   -0.6995609 
C     5.2961637    1.9209055   -2.1519247 
H     3.4704707    2.1567038   -0.9847881 
C     5.6576317    0.6080489   -1.4929311 
H     5.8827110    2.7367850   -1.6738234 
H     5.5963694    1.9086360   -3.2246407 
C     5.7595623    0.3711915   -0.1757022 
C     5.5962391    1.2147904    0.8756491 
C     5.7569102    0.7180476    2.1359653 
C     6.0759464   -0.5986649    2.3238377 
C     6.2371898   -1.4263298    1.2523058 
C     6.0728993   -0.9110611    0.0158313 
H     5.3453733    2.2602832    0.7265171 
H     5.6303921    1.3718405    2.9955751 
H     6.2013137   -0.9878752    3.3311583 
H     6.4899795   -2.4729861    1.3832923 
N     6.1951088   -1.5949714   -1.2233392 
C     5.9086348   -0.5384341   -2.1492183 
H     6.4329502   -2.5965807   -1.4069706 
H     5.8934198   -0.6562845   -3.2301118 
