48
Energy =
C    -1.6160322    3.8539438   -0.3887751 
C    -0.8563197    3.0478511    0.3951570 
C    -2.2144544    3.3561523   -1.5039247 
C    -2.0448519    2.0543182   -1.8284452 
C    -1.2843287    1.2442157   -1.0495033 
C    -0.6916037    1.7353355    0.0728950 
H    -0.3712504    3.4633650    1.2759177 
H    -2.5221205    1.6711761   -2.7233855 
H    -1.1507640    0.2040164   -1.3338089 
H    -1.7390243    4.8984309   -0.1238138 
C     0.1893054    0.8442143    0.9205317 
C     1.6349788    0.8051052    0.3780976 
H    -0.2380039   -0.1820499    0.9377445 
H     0.1928541    1.1969769    1.9772677 
C     2.3057436    2.1652473    0.4767070 
O    -3.0049244    4.1588104   -2.3332894 
H    -3.0673905    5.1246554   -2.0302486 
O     2.5077405    2.7602509    1.7196163 
N     2.4156499   -0.2157083    1.0942213 
H     1.6097093    0.5384591   -0.7043138 
H     2.4431490    0.0201895    2.1165458 
H     1.9530097   -1.1497964    0.9992022 
N     2.5618848    2.9264175   -0.7075577 
C     3.9330526    3.4332146   -0.8783319 
H     1.7911918    3.1083224   -1.3912971 
C     3.9866856    4.5545038   -1.8965173 
O     4.6926204    4.2973897   -3.0616401 
O     3.4024017    5.7996264   -1.6999094 
H     2.8631353    5.8115013   -0.8457623 
C     4.8842621    2.2714661   -1.2916970 
H     4.2981215    3.8853572    0.0721362 
C     4.4044306    1.5319819   -2.5344770 
H     4.9746205    1.5631037   -0.4385918 
H     5.9074773    2.6645452   -1.4814749 
C     4.2295696    2.0112375   -3.7958573 
C     4.5098282    3.2704003   -4.3603810 
C     4.1004849    3.4535233   -5.6596852 
C     3.4531741    2.4755540   -6.3537975 
C     3.2084009    1.2714865   -5.7804193 
C     3.6081103    1.0662161   -4.5124813 
H     5.2255420    4.3187416   -4.0401341 
H     4.3045609    4.4014349   -6.1525967 
H     3.1373665    2.6587759   -7.3779684 
H     2.6920051    0.4883829   -6.3254478 
N     3.3930895   -0.1127599   -3.7515114 
C     3.9273114    0.2764842   -2.4854637 
H     2.9534516   -1.0170459   -4.0383222 
H     3.8850681   -0.3389181   -1.5891672 
