48
Energy =
C    -0.9898697    6.1675560   -0.9135232 
C    -0.0602778    5.5241969   -1.6668050 
C    -2.3138095    5.9830990   -1.1581770 
C    -2.6997708    5.1575499   -2.1565961 
C    -1.7754828    4.5108677   -2.9108313 
C    -0.4462968    4.6852727   -2.6678235 
H     0.9965852    5.6861295   -1.4645596 
H    -3.7594604    5.0215055   -2.3439625 
H    -2.1088997    3.8536021   -3.7091796 
H    -0.6733330    6.8299353   -0.1146706 
C     0.5851191    3.9538444   -3.5092446 
C     1.0181610    2.5719328   -2.9429786 
H     1.4879094    4.5931761   -3.6448403 
H     0.1819782    3.8057039   -4.5354268 
C     1.9805818    2.6535880   -1.7546203 
O    -3.2959287    6.6296316   -0.4015752 
H    -2.9294576    7.2263247    0.3321073 
O     2.4580898    3.8806386   -1.3105651 
N    -0.1492098    1.7269339   -2.6392116 
H     1.5982334    2.0666450   -3.7435707 
H    -0.6785542    2.1305254   -1.8291405 
H    -0.7944398    1.7033570   -3.4628051 
N     2.5063127    1.4618524   -1.1443756 
C     3.9308190    1.1445883   -1.4620416 
H     1.8532279    0.6700769   -1.3376950 
C     4.7071245    2.2118383   -2.2574904 
O     5.6816205    2.9661613   -1.6132462 
O     4.5310264    2.3914613   -3.6331452 
H     3.8753440    1.7319899   -4.0156945 
C     4.0566800   -0.2594278   -2.1163340 
H     4.4651540    1.1103673   -0.4865498 
C     3.7675539   -1.3711438   -1.1303932 
H     5.0845797   -0.4091174   -2.5181453 
H     3.3631130   -0.3388554   -2.9821342 
C     4.5844046   -1.8192209   -0.1638567 
C     5.8410502   -1.4241685    0.1662582 
C     6.4634907   -2.0478612    1.2075166 
C     5.8285282   -3.0458435    1.8942436 
C     4.5669125   -3.4261723    1.5437017 
C     3.9723301   -2.7938631    0.5102414 
H     6.3460604   -0.6310578   -0.3776206 
H     7.4690760   -1.7486455    1.4937335 
H     6.3306752   -3.5373202    2.7237667 
H     4.0486228   -4.2148545    2.0783516 
N     2.6725052   -3.0333110   -0.0106998 
C     2.6188835   -2.0679461   -1.0694402 
H     1.9535636   -3.7281806    0.2955547 
H     1.7625843   -1.9207284   -1.7235468 
