48
Energy =
C     5.5705886   -4.2666111    2.2499221 
C     5.3177726   -3.0702932    1.6617358 
C     4.8926037   -4.6347367    3.3696296 
C     3.9653195   -3.8014214    3.8936572 
C     3.7082869   -2.6035388    3.3098240 
C     4.3862787   -2.2289156    2.1901691 
H     5.8677261   -2.7925533    0.7665218 
H     3.4312116   -4.1073065    4.7866273 
H     2.9572971   -1.9485698    3.7449660 
H     6.3158380   -4.9279524    1.8215425 
C     4.0841378   -0.9021472    1.5278866 
C     2.7955408   -0.9723450    0.6693903 
H     4.9553429   -0.5649932    0.9300964 
H     3.9554851   -0.1287853    2.3200081 
C     2.2731020    0.4164154    0.2822634 
O     5.1276002   -5.8614144    3.9992190 
H     5.8413031   -6.4246052    3.5498505 
O     1.2356693    0.9220924    1.0563374 
N     2.9313236   -1.8947153   -0.4766972 
H     1.9854531   -1.3591635    1.3368748 
H     3.9341397   -2.0316211   -0.7404347 
H     2.5955026   -2.8441850   -0.1870520 
N     2.6599431    1.2166129   -0.8596621 
C     3.8444456    0.8145732   -1.6586921 
H     1.7962313    1.3189464   -1.4336398 
C     4.7878151    1.9881394   -1.8958340 
O     6.1410594    1.7261896   -2.0719934 
O     4.3423730    3.2998606   -2.0545447 
H     3.3534617    3.3813490   -1.8741733 
C     3.4389843    0.1215280   -2.9897588 
H     4.4772790    0.1082116   -1.0997227 
C     2.7772900    1.0452382   -3.9958512 
H     2.7496228   -0.7210186   -2.7667038 
H     4.3386929   -0.3418986   -3.4514336 
C     3.3847968    1.8332209   -4.9009925 
C     4.7064737    2.0082131   -5.1629663 
C     5.0632743    2.8799373   -6.1495451 
C     4.1058558    3.5510099   -6.8580757 
C     2.7853225    3.3543722   -6.5842875 
C     2.4574614    2.4903256   -5.6009494 
H     5.4729912    1.4807160   -4.6029222 
H     6.1157363    3.0459212   -6.3689151 
H     4.3988243    4.2462212   -7.6411443 
H     2.0129601    3.8778049   -7.1377843 
N     1.1504612    2.1406524   -5.1695800 
C     1.4469390    1.1964852   -4.1327937 
H     0.2249614    2.4804787   -5.5206129 
H     0.6942910    0.6663951   -3.5511227 
