48
Energy =
C    -2.9285720   -2.5842837   -1.2490441 
C    -1.7515174   -1.9409818   -1.4541917 
C    -3.3458811   -2.8590817    0.0158166 
C    -2.5819275   -2.4858740    1.0675529 
C    -1.4041113   -1.8420465    0.8682808 
C    -0.9802428   -1.5686168   -0.3958110 
H    -1.4326763   -1.7233567   -2.4707802 
H    -2.9271411   -2.7088832    2.0711233 
H    -0.8046390   -1.5482757    1.7263181 
H    -3.5354815   -2.8768960   -2.0990206 
C     0.3287144   -0.8461883   -0.6179441 
C     0.2020534    0.6740759   -0.4011692 
H     0.6960932   -1.0314098   -1.6490621 
H     1.0918258   -1.2734759    0.0720600 
C     1.5742383    1.3009538   -0.2257682 
O    -4.5527174   -3.5215937    0.2623803 
H    -5.0696572   -3.7616923   -0.5764837 
O     1.9222127    1.8397044    1.0087588 
N    -0.5135128    1.2684481   -1.5435771 
H    -0.3480009    0.8757518    0.5512074 
H    -1.5058153    0.9321139   -1.5365465 
H    -0.5736016    2.3070638   -1.4071792 
N     2.4974865    1.3770377   -1.3227285 
C     3.9398272    1.4325497   -1.0148543 
H     2.1266263    1.3082607   -2.2976415 
C     4.5060298    2.7998237   -1.3780315 
O     5.2737605    2.9560471   -2.5272953 
O     4.2549293    3.9193861   -0.5865726 
H     3.6077809    3.7115326    0.1632813 
C     4.6720692    0.2848948   -1.7469628 
H     4.1298981    1.3219364    0.0785267 
C     4.1325402   -1.0722671   -1.3508042 
H     5.7569965    0.3216161   -1.4988209 
H     4.6076136    0.4359741   -2.8460183 
C     3.3522724   -1.8841722   -2.0845574 
C     2.8609157   -1.7265451   -3.3422397 
C     2.0469472   -2.6977226   -3.8468832 
C     1.7365495   -3.7978670   -3.0971764 
C     2.2413682   -3.9364827   -1.8389905 
C     3.0499071   -2.9664852   -1.3635536 
H     3.0915003   -0.8509368   -3.9401052 
H     1.6391195   -2.5944097   -4.8500117 
H     1.0830915   -4.5652901   -3.5052404 
H     1.9992368   -4.8004079   -1.2290443 
N     3.6457629   -2.9037610   -0.0759627 
C     4.3266873   -1.6447898   -0.1494702 
H     3.5917197   -3.5868299    0.7147040 
H     4.9046625   -1.2103424    0.6636045 
