48
Energy =
C     1.4328201    6.3392052   -0.4050288 
C     0.4071049    5.6582120   -0.9759756 
C     2.7189136    6.0091506   -0.6975450 
C     2.9696325    4.9986308   -1.5583913 
C     1.9474479    4.3277905   -2.1476922 
C     0.6577683    4.6479451   -1.8548923 
H    -0.6149851    5.9224223   -0.7171355 
H     4.0011312    4.7237166   -1.7510919 
H     2.1670177    3.5137708   -2.8342845 
H     1.2215152    7.1438452    0.2912761 
C    -0.4869193    3.8653968   -2.4695332 
C    -0.7195845    2.4876577   -1.7986838 
H    -0.3003160    3.7259190   -3.5581075 
H    -1.4291377    4.4525929   -2.4042860 
C     0.3841184    1.4891795   -2.1299700 
O     3.7984462    6.6964876   -0.1336927 
H     3.5293485    7.4059311    0.5395146 
O     0.6410028    1.2412967   -3.4762295 
N    -0.9416382    2.6439828   -0.3491888 
H    -1.6363046    2.0373066   -2.2440162 
H    -0.0505100    2.9341684    0.1200448 
H    -1.6547921    3.3878913   -0.1672951 
N     0.7808409    0.5034589   -1.1587766 
C     2.2409587    0.2414296   -1.1341244 
H     0.2358394   -0.3648948   -1.3566764 
C     3.0602292    1.5143434   -0.8987654 
O     3.9735947    1.9629054   -1.8498632 
O     2.8841576    2.2827574    0.2497757 
H     2.1516890    1.8987428    0.8321400 
C     2.6935152   -0.5550913   -2.3873434 
H     2.4368250   -0.3827382   -0.2338011 
C     3.9417292   -1.3645079   -2.1164901 
H     2.8784234    0.1376555   -3.2378783 
H     1.8846398   -1.2293967   -2.7364337 
C     4.0105502   -2.5417189   -1.4758164 
C     3.0198770   -3.2969463   -0.9356736 
C     3.3593804   -4.4675521   -0.3214763 
C     4.6687239   -4.8579684   -0.2557031 
C     5.6464383   -4.0798925   -0.8015326 
C     5.2849055   -2.9283467   -1.4049636 
H     1.9821010   -2.9797767   -0.9804986 
H     2.5870636   -5.0923360    0.1222482 
H     4.9334037   -5.7901470    0.2376280 
H     6.6903514   -4.3712482   -0.7526095 
N     6.1392616   -1.9735773   -2.0175355 
C     5.1893759   -0.9880145   -2.4454305 
H     7.1786758   -1.9859496   -2.1323683 
H     5.4502221   -0.0543490   -2.9412330 
