48
 energy: -9.288415480163 gnorm: 0.000347110026 xtb: 6.6.0 (2ccbbd7)
C            1.72401300165979        6.02287171832398        0.00834652987547
C            1.89794229707490        4.99817514652657        0.90865623736687
C            0.77704531297333        5.92133401091013       -1.01174393029265
C            0.02199154510688        4.75230786545530       -1.09748032591771
C            0.20710903486694        3.73076954927036       -0.19787528148757
C            1.13857498476203        3.84047154047666        0.82510021414557
H            2.63890644207288        5.08439326847024        1.68465807612707
H           -0.69824702147620        4.66633059088521       -1.89128635503084
H           -0.34922317400802        2.81384775148917       -0.29690148364386
H            2.32249456563203        6.91331880878073        0.07888915744542
C            1.36846518990285        2.69513803826798        1.76244956864984
C            2.32333272261002        1.64420508347582        1.17856477058879
H            0.40591495582907        2.22325578395352        1.98660597167246
H            1.75615642219637        3.06912864802699        2.71492190883066
C            1.73379826032556        1.09860760391018       -0.11313137193778
O            0.57329769110730        6.93578614250190       -1.92736684217129
H            1.20386564076628        7.66911015111038       -1.76106617467998
O            0.56709124979494        0.75259570857908       -0.08210595324261
N            3.66327495587972        2.18857042471517        1.02631525451804
H            2.39914789130367        0.79338909672785        1.87443003804553
H            3.65367217302791        2.87997327839188        0.28384662644656
H            3.97236178251081        2.64734187668977        1.87257532185123
N            2.43504172853488        1.01844247035846       -1.30142912139954
C            3.89068956541519        1.08966324833679       -1.46874982250380
H            1.95829719669259        0.62791944224877       -2.10930363853353
C            4.34868729537419        2.50205204504635       -1.77738232140608
O            5.52907663647618        2.66934904272434       -2.00044104580242
O            3.41662453166620        3.48806865348524       -1.77064077623241
H            2.51467715909384        3.12066298065139       -1.62129042677770
C            4.36661333519763        0.12281182460536       -2.55886761498380
H            4.34377465664191        0.79912025471073       -0.51028392436491
C            3.64126651139079        0.28842350034532       -3.85317769269608
H            4.24061820637616       -0.90901921838854       -2.21491761236295
H            5.43945479517803        0.26502032458086       -2.72565833378191
C            3.79588075885209        1.34190750332569       -4.80472105938804
C            4.61857699907204        2.48089837544613       -4.85466445371553
C            4.52692543907014        3.31530025530516       -5.93298922486626
C            3.62739527612565        3.05324029512885       -6.97854819278593
C            2.80659497238790        1.95937839427529       -6.94776457297799
C            2.88560345539407        1.09285300472485       -5.85018272098894
H            5.26873260241357        2.70433430083194       -4.02751349677010
H            5.14578538081839        4.19627499442334       -5.97622036665461
H            3.57891847302159        3.73127193673477       -7.81450586959651
H            2.10886415654598        1.75488449711825       -7.73986470576370
N            2.19273422438904       -0.06121424868974       -5.53196903203459
C            2.65092754921687       -0.53584746274106       -4.32879968837494
H            1.44948756024339       -0.46934935336274       -6.10184418182494
H            2.28065685352054       -1.41977842505238       -3.83471033361081
