48
 energy: -9.040257980633 gnorm: 0.000410763435 xtb: 6.6.0 (2ccbbd7)
C            0.06349075155728       -3.38212879401985        1.14533445382846
C           -0.33679947988912       -2.63356370240055        0.06189534505731
C            1.37180720408011       -3.86106636466598        1.23472586531660
C            2.24561907704666       -3.55744840228462        0.19816333850695
C            1.84129836955297       -2.81244506614119       -0.87975359041264
C            0.54241818500627       -2.34229281393983       -0.97200684118721
H           -1.34632523956579       -2.26358189270169        0.00798411602785
H            3.41787031368989       -3.91882125371317        0.27669083111796
H            2.53872163688482       -2.57956593939822       -1.66444875146205
H           -0.62900193556962       -3.60289449491124        1.93765825662746
C            0.10622644623623       -1.50724851035039       -2.13793218657584
C            0.27177939103598        0.00026379198142       -1.90315237198901
H           -0.94118502353116       -1.73163339501242       -2.36251965549974
H            0.66871350314527       -1.79031429904582       -3.03263967431258
C            1.71215256795495        0.43301780031724       -2.04977896834822
O            1.81534292231764       -4.61000057042309        2.30814211373709
H            1.08656001626645       -4.73341954146317        2.95374126068773
O            2.09419458166538        0.77223036584816       -3.15007551172709
N           -0.52743562428146        0.79683619837277       -2.82293094932336
H           -0.06576600252655        0.24144582344416       -0.88348786637960
H           -0.03329048784841        0.84353233150001       -3.71025204217108
H           -1.44167088742677        0.38887833697272       -2.97833068038468
N            2.51468675697604        0.44250523329674       -0.93134426295351
C            3.84865762156862        1.05187811058685       -0.90577837669579
H            2.09421631431266        0.31743871676312       -0.00951109721942
C            3.73462664647978        2.55911550339843       -0.80986407398684
O            4.35155925224356        3.12819150321405        0.06364138983435
O            2.95266217519015        3.14006335394854       -1.74793079442281
H            2.56351375929314        2.42954369436256       -2.31391120900012
C            4.72727415601831        0.65642800310375       -2.09435272329123
H            4.34053674416448        0.71319678529540        0.01647574074904
C            4.81270009240877       -0.81525969634217       -2.31911984680580
H            5.73231059967205        1.07385783663881       -1.97434804827371
H            4.31215492381745        1.12019185145809       -2.99464407121345
C            5.06032152795971       -1.80982276155160       -1.35576303050438
C            5.36925086504893       -1.75853955979085        0.04477239521022
C            5.25439562006816       -2.87647259356636        0.77854089171278
C            4.65950323896467       -4.11968710495273        0.18968443169453
C            4.84002134454477       -4.23716257182487       -1.29006294849582
C            4.89933856516548       -3.07626488071207       -2.00697324632902
H            5.72944526009950       -0.84313410943753        0.47898968794426
H            5.50394395493743       -2.86111720403298        1.82640269834971
H            4.93892222421752       -5.02922737499576        0.73008318186402
H            4.69067063104820       -5.17446327400643       -1.79447357753128
N            4.61400658663760       -2.80794848484982       -3.35091364998567
C            4.54594775747681       -1.45537394548874       -3.52180720575176
H            4.39920416972394       -3.52656968397498       -4.04409057295325
H            4.27743767075475       -0.96372700719785       -4.44296669463507
