48
Energy =
C     0.0181736   -1.7502397   -4.5336406 
C    -0.1333571   -1.5496310   -3.2004181 
C     0.0230584   -0.6931934   -5.3872926 
C    -0.1361562    0.5572946   -4.9009365 
C    -0.3006603    0.7626093   -3.5705192 
C    -0.2716227   -0.2878453   -2.7007865 
H    -0.1459086   -2.4109166   -2.5381034 
H    -0.1324561    1.3951496   -5.5893549 
H    -0.4390324    1.7775329   -3.2197445 
H     0.1340409   -2.7588332   -4.9152477 
C    -0.4842897   -0.0998489   -1.2037756 
C     0.2758467    1.0780044   -0.5162402 
H    -0.1800138   -1.0305081   -0.6751813 
H    -1.5780377   -0.0095359   -1.0312244 
C     1.5660557    1.5001692   -1.2131768 
O     0.1860445   -0.8665029   -6.7657050 
H     0.2934812   -1.8332872   -7.0510515 
O     1.6593520    2.6165464   -1.7479607 
N    -0.6266372    2.2187531   -0.2841044 
H     0.6113638    0.7266480    0.4856229 
H    -0.9517072    2.6091322   -1.1981662 
H    -1.4698938    1.9120473    0.2531032 
N     2.6994780    0.6119957   -1.2548395 
C     3.6077578    0.8186290   -2.3998772 
H     2.8319905   -0.1348867   -0.5365907 
C     3.2155737    2.0838162   -3.1616709 
O     3.7584300    2.3490566   -4.4150432 
O     2.4289504    2.8910855   -2.6479043 
H     2.5328078    3.1013543   -1.6755710 
C     3.5716575   -0.4244368   -3.3098753 
H     4.6405916    0.9921046   -2.0277241 
C     4.1571542   -1.6359950   -2.6236763 
H     4.1293094   -0.2337595   -4.2540604 
H     2.5217985   -0.6261905   -3.6077361 
C     5.4591075   -1.9278660   -2.4859773 
C     6.5526352   -1.2587115   -2.9330704 
C     7.7850365   -1.7707424   -2.6505271 
C     7.9039455   -2.9289515   -1.9325089 
C     6.7907734   -3.5820909   -1.4923329 
C     5.5830325   -3.0563358   -1.7859899 
H     6.4588819   -0.3383672   -3.5028522 
H     8.6773861   -1.2552049   -2.9981100 
H     8.8897186   -3.3304813   -1.7109744 
H     6.8671983   -4.5002923   -0.9198981 
N     4.3097478   -3.5682191   -1.4181294 
C     3.4414827   -2.5850510   -1.9960535 
H     4.0725327   -4.4270496   -0.8709649 
H     2.3582068   -2.5978436   -1.9139320 
