48
Energy =
C    -3.5953640    2.0414151    1.0950333 
C    -2.5189800    2.1391132    0.2740546 
C    -3.4212907    1.8624751    2.4318418 
C    -2.1695977    1.7818560    2.9378493 
C    -1.0898301    1.8789745    2.1215068 
C    -1.2587902    2.0622438    0.7832793 
H    -2.6717462    2.2794709   -0.7931544 
H    -2.0436656    1.6369344    4.0052261 
H    -0.0921416    1.8060778    2.5465937 
H    -4.5952396    2.1055086    0.6798003 
C    -0.0609316    2.1535772   -0.1355001 
C     0.2088217    0.8211576   -0.8731192 
H     0.8455452    2.4614806    0.4324591 
H    -0.2439447    2.9614568   -0.8799199 
C     1.2298723    1.0073931   -1.9761380 
O    -4.5088055    1.7568721    3.3051038 
H    -5.4118603    1.8286743    2.8494825 
O     0.8851312    0.7302199   -3.2958708 
N     0.6463433   -0.2212738    0.0704890 
H    -0.7215911    0.4837615   -1.3884204 
H     1.4535933    0.1264845    0.6412945 
H    -0.1317493   -0.4465680    0.7333754 
N     2.5833127    1.3684521   -1.6714584 
C     3.5798560    0.2909190   -1.7995835 
H     2.8012226    2.3473547   -1.3794810 
C     4.7505800    0.4893735   -0.8445327 
O     5.0855354   -0.5252267    0.0430876 
O     5.5375627    1.6423330   -0.8686551 
H     5.2056502    2.3063079   -1.5519090 
C     4.0484347    0.2007571   -3.2755116 
H     3.1092428   -0.6712722   -1.4786772 
C     4.0544253   -1.2286463   -3.7628250 
H     5.0522442    0.6561969   -3.4206694 
H     3.3659046    0.7917159   -3.9290552 
C     5.0491795   -2.1193070   -3.6356297 
C     6.2839737   -1.9743546   -3.0896943 
C     7.1137213   -3.0564924   -3.0697354 
C     6.7010978   -4.2536654   -3.5865099 
C     5.4540951   -4.3768887   -4.1238816 
C     4.6522982   -3.2915181   -4.1342992 
H     6.6113468   -1.0288549   -2.6657218 
H     8.1057348   -2.9677172   -2.6327087 
H     7.3671712   -5.1124979   -3.5614964 
H     5.1077620   -5.3217979   -4.5286199 
N     3.3187183   -3.2133105   -4.6191453 
C     3.0006738   -1.8446818   -4.3274765 
H     2.7319826   -3.9538450   -5.0682326 
H     2.0285708   -1.3801924   -4.4996243 
