48
 energy: -9.297373696188 gnorm: 0.000778990288 xtb: 6.6.0 (2ccbbd7)
C           -0.05313179368827        4.63029996879607        0.12016721936143
C           -0.26734295695701        3.54905597785345        0.94247513589254
C            1.22696846177038        5.16305442621178       -0.03663282809927
C            2.27729061092681        4.57356187645936        0.66562441486723
C            2.04940835222555        3.50298016297404        1.49590981184926
C            0.77830518007738        2.97045759180398        1.64717357736179
H           -1.25691538448264        3.13703719621567        1.04232830794511
H            3.27272089396542        4.95904303408764        0.52640997324990
H            2.87553037281894        3.04480941024695        2.01003900004477
H           -0.87235971925482        5.07266196823266       -0.41769802683629
C            0.54662654002797        1.75591168427911        2.49623073309249
C            0.83952467370371        0.43893233659257        1.76378793589664
H           -0.48793444664249        1.75757168714770        2.85288106131208
H            1.17089458559474        1.80790777782479        3.39316234730452
C            2.32364792182152        0.25585500176841        1.57304641904325
O            1.47492876308202        6.24217882909072       -0.86287648075633
H            0.64017943947451        6.54633418594582       -1.28051131386897
O            2.96301354017187       -0.26393890913260        2.46536821489227
N            0.33151008570175       -0.72307478769691        2.47929153439852
H            0.35623465750118        0.46175368228486        0.77529677936466
H            0.99276794188228       -0.93748955179192        3.22031127720168
H           -0.57058185623036       -0.53324029261633        2.89861753449767
N            2.90688318262929        0.71228054252975        0.41240210731532
C            4.35493740087801        0.81526789299707        0.28734046904676
H            2.38681550986571        1.31514673090152       -0.22514553336603
C            4.83156690178208        2.05683567179799        1.01940410333752
O            5.27878805394225        2.99149362734091        0.39179995382258
O            4.67196915056211        2.00786882628746        2.36601334803839
H            4.18229703918000        1.18194112992745        2.58882772147329
C            4.80362937324296        0.80439783038616       -1.17198009614155
H            4.79609120071958       -0.05155743761618        0.79760215827792
C            4.63715866718279       -0.49486951524972       -1.89865384323787
H            5.85769012865039        1.09920548116816       -1.21427525545452
H            4.26221325933550        1.59123451545668       -1.70534946986419
C            4.09965865450867       -1.74775599483970       -1.45325234938198
C            3.50873681977462       -2.19551084887789       -0.25630588661369
C            3.11345033528625       -3.49928290812278       -0.15173129116196
C            3.27860427743322       -4.39723369472836       -1.21650038290996
C            3.83701576216448       -3.99167971909800       -2.39631082525692
C            4.24986743075469       -2.65900176098201       -2.51939300696619
H            3.34182299911107       -1.51551171478669        0.55637735352702
H            2.65854356548872       -3.84308004595059        0.76260665642851
H            2.95652139546976       -5.41906418101318       -1.10223352043016
H            3.96734840630789       -4.66911221694954       -3.22109333764132
N            4.83920883783046       -1.98412887673302       -3.57063378088890
C            5.06895491845971       -0.68844137847082       -3.18786956016948
H            5.07661962742549       -2.40143737332078       -4.47244938205009
H            5.53589688171176        0.05994246668317       -3.80797343226396
