48
Energy =
C    -3.0852087    2.6054077    1.6607127 
C    -1.7372855    2.6002277    1.5029689 
C    -3.7846441    1.4406936    1.6025473 
C    -3.1291402    0.2777021    1.3864584 
C    -1.7813232    0.2664021    1.2278430 
C    -1.0763446    1.4294334    1.2887109 
H    -1.1914898    3.5394098    1.5497260 
H    -3.6990264   -0.6439101    1.3411075 
H    -1.2749785   -0.6786073    1.0505210 
H    -3.6022748    3.5433181    1.8323499 
C     0.4237765    1.4280708    1.0951200 
C     0.8349076    1.8791250   -0.3284420 
H     0.8523401    0.4238516    1.3105034 
H     0.8813577    2.1106965    1.8473222 
C     2.3402362    2.0634523   -0.4575300 
O    -5.1741542    1.4108064    1.7592293 
H    -5.5904873    2.3214703    1.9204531 
O     3.1891157    1.7370137    0.5994589 
N     0.3449024    0.9261794   -1.3381771 
H     0.3944087    2.8831201   -0.5283536 
H     0.6237229   -0.0494368   -1.0787754 
H    -0.7013592    0.9575460   -1.3745173 
N     2.8974924    2.5881006   -1.6724714 
C     4.2545638    2.1428911   -2.0426501 
H     2.3303279    3.2453547   -2.2551762 
C     4.8596563    3.0352783   -3.1198874 
O     6.0649294    3.6786793   -2.8710101 
O     4.2612807    3.1946339   -4.3720151 
H     3.3757182    2.7142106   -4.4286774 
C     4.2055005    0.6624698   -2.4842189 
H     4.9335399    2.2513571   -1.1624220 
C     5.5942125    0.1052983   -2.6962857 
H     3.6044638    0.5573750   -3.4138642 
H     3.6843680    0.0529017   -1.7144199 
C     6.4174325   -0.3748597   -1.7516600 
C     6.2225069   -0.5097834   -0.4145307 
C     7.2390273   -1.0184102    0.3394488 
C     8.4221466   -1.3758730   -0.2466293 
C     8.5967299   -1.2243625   -1.5905434 
C     7.5750361   -0.7223517   -2.3154578 
H     5.2879586   -0.2137358    0.0551512 
H     7.1096582   -1.1332881    1.4130832 
H     9.2294450   -1.7753458    0.3620990 
H     9.5320007   -1.4927710   -2.0698339 
N     7.5578323   -0.4624322   -3.7122667 
C     6.2412698    0.0847102   -3.8745161 
H     8.3016185   -0.6334198   -4.4273869 
H     5.8439448    0.4791037   -4.8098569 
