48
Energy =
C    -4.1601567   -1.8340769   -2.3101757 
C    -2.9577663   -2.2006479   -1.7985543 
C    -4.4711397   -0.5174694   -2.4499639 
C    -3.5755797    0.4239707   -2.0751180 
C    -2.3718971    0.0632940   -1.5629946 
C    -2.0565174   -1.2529813   -1.4195064 
H    -2.7221838   -3.2571066   -1.6985644 
H    -3.8351148    1.4703083   -2.1914336 
H    -1.6641951    0.8344285   -1.2701356 
H    -4.8711942   -2.5966988   -2.6089714 
C    -0.7060797   -1.6539580   -0.8687332 
C     0.4221994   -1.5009185   -1.9153820 
H    -0.7232791   -2.7016114   -0.4909872 
H    -0.4836828   -1.0191279    0.0179683 
C     1.7830896   -1.6769303   -1.2629471 
O    -5.6997547   -0.1058435   -2.9771060 
H    -6.3181878   -0.8709913   -3.2230216 
O     2.1106315   -2.9209645   -0.7296750 
N     0.2446897   -2.4577786   -3.0205362 
H     0.4022946   -0.4663963   -2.3288602 
H     0.2147722   -3.4334232   -2.6361493 
H    -0.6664784   -2.2783129   -3.5028612 
N     2.4671977   -0.5121903   -0.7692454 
C     3.9393713   -0.6966139   -0.7664840 
H     2.1528313   -0.4329296    0.2267669 
C     4.6595908    0.3952166    0.0236474 
O     5.9305478    0.1342690    0.5149100 
O     4.1582294    1.6924261    0.1480660 
H     3.2343299    1.7816723   -0.2476268 
C     4.4986406   -0.7787748   -2.2090045 
H     4.2033090   -1.6452851   -0.2389929 
C     4.1502597    0.4347050   -3.0513711 
H     4.1384821   -1.7138505   -2.6869149 
H     5.6066831   -0.8822324   -2.1659529 
C     3.2287563    0.5102563   -4.0276647 
C     2.4125980   -0.4479679   -4.5378806 
C     1.5491353   -0.1034387   -5.5349376 
C     1.5200491    1.1770010   -6.0117626 
C     2.3570399    2.1206767   -5.4961208 
C     3.1997100    1.7564438   -4.5070320 
H     2.4336496   -1.4698130   -4.1743081 
H     0.8806016   -0.8535269   -5.9522024 
H     0.8285830    1.4429146   -6.8081306 
H     2.3498066    3.1403516   -5.8677096 
N     4.1476735    2.5808045   -3.8454609 
C     4.7237179    1.6472410   -2.9213634 
H     4.3683304    3.5934724   -3.9948922 
H     5.5050337    1.8969719   -2.2021432 
