48
Energy =
C     4.9256661   -3.1338839   -2.0163388 
C     3.7905641   -2.9465894   -1.2966679 
C     6.0689154   -2.4827553   -1.6729926 
C     6.0608004   -1.6262478   -0.6257704 
C     4.9272644   -1.4335296    0.0970327 
C     3.7881208   -2.1069546   -0.2247614 
H     2.8885450   -3.4838170   -1.5762826 
H     6.9734605   -1.0944273   -0.3767726 
H     4.9375988   -0.7372613    0.9333205 
H     4.9220359   -3.8172840   -2.8583126 
C     2.5383331   -1.9413580    0.6113039 
C     1.6387438   -0.7587316    0.1857232 
H     2.8242993   -1.8137275    1.6807574 
H     1.9431310   -2.8805654    0.5826538 
C     2.2909438    0.6028476    0.4758633 
O     7.2636486   -2.6857951   -2.3709818 
H     7.1724597   -3.2878042   -3.1804347 
O     2.2424975    1.0264071    1.7973074 
N     1.1291133   -0.9430548   -1.1849543 
H     0.7675832   -0.7749773    0.8865200 
H     0.7273545   -1.9055702   -1.2810584 
H     0.3178474   -0.2958272   -1.3245392 
N     2.9502170    1.4943901   -0.4556486 
C     3.2581755    1.0201312   -1.8289146 
H     2.4119738    2.3912955   -0.4439074 
C     4.6850767    1.3905299   -2.2198420 
O     5.4381278    0.4789331   -2.9477333 
O     5.2406716    2.6379038   -1.9382225 
H     4.6196348    3.1990228   -1.3761707 
C     2.2393656    1.6202852   -2.8364144 
H     3.2544737   -0.0829501   -1.8762770 
C     2.2711629    1.0352448   -4.2424431 
H     2.4189677    2.7168265   -2.9057874 
H     1.2114813    1.4937674   -2.4405515 
C     1.6036806    1.5387621   -5.2944934 
C     0.8107177    2.6393436   -5.3707835 
C     0.2345563    2.9427838   -6.5693404 
C     0.4542806    2.1497711   -7.6613896 
C     1.2506267    1.0479496   -7.5607435 
C     1.8098836    0.7700531   -6.3643368 
H     0.6347242    3.2702501   -4.5044103 
H    -0.4014673    3.8205500   -6.6570257 
H    -0.0072625    2.3986778   -8.6138333 
H     1.4345636    0.4074112   -8.4166655 
N     2.6542296   -0.3244738   -6.0471079 
C     2.9032554   -0.0857747   -4.6537268 
H     2.9895676   -1.1026700   -6.6603799 
H     3.5296765   -0.7275152   -4.0381225 
