48
Energy =
C     5.5672979    1.5985490    3.3435406 
C     4.8159712    1.0357604    2.3642264 
C     4.9692937    2.1291822    4.4436371 
C     3.6216625    2.0930422    4.5549685 
C     2.8650280    1.5310349    3.5782968 
C     3.4596276    0.9959604    2.4776461 
H     5.3071764    0.6153353    1.4903037 
H     3.1573470    2.5208258    5.4368447 
H     1.7836073    1.5130565    3.6858661 
H     6.6469625    1.6231712    3.2445829 
C     2.6285077    0.3753984    1.3793445 
C     2.4136388    1.3438974    0.1911374 
H     1.6457566    0.0243134    1.7662943 
H     3.1435241   -0.5461858    1.0314177 
C     2.0674085    0.5711584   -1.0709814 
O     5.7140007    2.7161967    5.4717833 
H     6.7152625    2.7120056    5.3110198 
O     1.0384701   -0.3645348   -1.0447292 
N     1.3630268    2.3242534    0.5059063 
H     3.3580253    1.8935647   -0.0201675 
H     0.4583885    1.8286252    0.6949546 
H     1.6221865    2.8632159    1.3645402 
N     2.6021612    0.9541311   -2.3414550 
C     4.0365615    0.7191816   -2.6018310 
H     1.9643827    1.4473011   -3.0092564 
C     4.5357993    1.6163882   -3.7315988 
O     3.7809288    1.7445802   -4.8909646 
O     5.7727565    2.2604115   -3.6649068 
H     6.2512340    2.0984146   -2.7928984 
C     4.2639913   -0.7664569   -2.9602586 
H     4.6306698    0.9831302   -1.7014199 
C     4.3187975   -1.6454073   -1.7302117 
H     5.2183382   -0.8926346   -3.5199151 
H     3.4542195   -1.1060563   -3.6467181 
C     5.3319495   -1.7289730   -0.8536067 
C     6.5343386   -1.0980160   -0.8522977 
C     7.3874198   -1.3318842    0.1859625 
C     7.0287686   -2.1808574    1.1965645 
C     5.8167381   -2.8049428    1.1721970 
C     4.9937691   -2.5626051    0.1307655 
H     6.8190234   -0.4226582   -1.6541251 
H     8.3579188   -0.8413296    0.2099485 
H     7.7130735   -2.3609639    2.0222129 
H     5.5151581   -3.4787833    1.9671666 
N     3.6884647   -3.0839416   -0.0724504 
C     3.3196546   -2.4349657   -1.2988728 
H     3.1409387   -3.7550556    0.5145460 
H     2.3430185   -2.5207372   -1.7778952 
