48
Energy =
C     3.2988201   -0.4811586    2.8989547 
C     2.2298676    0.2288397    2.4586941 
C     3.3477120   -1.8268081    2.7148300 
C     2.3309841   -2.4522558    2.0804385 
C     1.2605526   -1.7473367    1.6366433 
C     1.2000052   -0.3993999    1.8257888 
H     2.2011409    1.3020952    2.6300739 
H     2.3813322   -3.5263541    1.9396421 
H     0.4501960   -2.2700556    1.1359291 
H     4.1109586    0.0307394    3.4048345 
C    -0.0060692    0.3887863    1.3504133 
C     0.1499957    0.9790576   -0.0738606 
H    -0.2097417    1.2180825    2.0663151 
H    -0.9140216   -0.2525919    1.3809738 
C     1.2653322    2.0108238   -0.1661795 
O     4.4292404   -2.5895111    3.1654687 
H     5.1332182   -2.0514488    3.6609707 
O     1.4164414    2.9485808    0.8494716 
N     0.2975586   -0.0908505   -1.0762197 
H    -0.7802809    1.5459246   -0.3054029 
H     1.1878866   -0.6161993   -0.9165337 
H    -0.4972598   -0.7673584   -0.9930634 
N     1.9194852    2.2599573   -1.4143488 
C     3.3902832    2.2466082   -1.4146298 
H     1.3488347    2.3900491   -2.2804416 
C     3.9318448    3.6309403   -1.7615087 
O     4.3493585    3.9189436   -3.0571541 
O     3.9936770    4.6425415   -0.8051332 
H     3.4899880    4.3916772    0.0355317 
C     3.8610037    1.1492900   -2.3934222 
H     3.7872806    2.0156362   -0.3968544 
C     5.3277270    0.8245843   -2.2122335 
H     3.6703449    1.4709948   -3.4430583 
H     3.2537719    0.2305828   -2.2477947 
C     5.8518200   -0.0973931   -1.3886630 
C     5.2347534   -0.9670668   -0.5471595 
C     6.0088009   -1.8274423    0.1749493 
C     7.3704936   -1.7979230    0.0577713 
C     7.9680563   -0.9100598   -0.7860703 
C     7.1815937   -0.0748220   -1.4962547 
H     4.1543211   -0.9900393   -0.4452074 
H     5.5427939   -2.5449179    0.8451713 
H     7.9786943   -2.4866098    0.6390029 
H     9.0470484   -0.8731653   -0.8910883 
N     7.5995066    0.9124445   -2.4270719 
C     6.3372572    1.4516378   -2.8425841 
H     8.5653796    1.1721380   -2.7325519 
H     6.2196009    2.2647540   -3.5586843 
