48
Energy =
C    -0.9830163   -1.2574002    1.1134269 
C     0.3504823   -1.3499779    0.8794587 
C    -1.8560788   -1.1879931    0.0737616 
C    -1.3871003   -1.2087040   -1.1940562 
C    -0.0545944   -1.3015408   -1.4340478 
C     0.8255658   -1.3742817   -0.3967637 
H     1.0352540   -1.3960980    1.7215545 
H    -2.0932713   -1.1471373   -2.0146733 
H     0.2943691   -1.3161535   -2.4608624 
H    -1.3483145   -1.2360896    2.1341915 
C     2.3179927   -1.4660391   -0.6543913 
C     3.0215424   -0.0894399   -0.5994187 
H     2.5065252   -1.9590962   -1.6318740 
H     2.7758704   -2.1381625    0.1044603 
C     2.4968168    0.8762302   -1.6695111 
O    -3.2369486   -1.0985771    0.2798508 
H    -3.5044907   -1.0609787    1.2571026 
O     1.8982057    2.0737184   -1.2970685 
N     2.8917359    0.4572608    0.7621395 
H     4.1025595   -0.2320174   -0.8147895 
H     3.4587586   -0.1165865    1.4285151 
H     3.2829552    1.4292002    0.7939280 
N     2.6935748    0.6318999   -3.0753023 
C     4.0954983    0.8051204   -3.5231570 
H     2.2743143   -0.2835452   -3.3465709 
C     4.1221407    1.5752659   -4.8441166 
O     3.4109301    1.0818855   -5.9331972 
O     4.9052345    2.7174692   -5.0220491 
H     5.3656607    3.0066772   -4.1731207 
C     4.7871342   -0.5729988   -3.6858527 
H     4.6663858    1.4113780   -2.7810718 
C     6.2847191   -0.4243152   -3.8481237 
H     4.3566509   -1.1194156   -4.5554024 
H     4.5950954   -1.2153217   -2.8035674 
C     6.9746366   -0.3256966   -4.9970692 
C     6.5417613   -0.3656104   -6.2838779 
C     7.4607912   -0.2287852   -7.2820735 
C     8.7843202   -0.0576727   -6.9844259 
C     9.1967742   -0.0207970   -5.6857007 
C     8.2684880   -0.1581030   -4.7156074 
H     5.4916362   -0.4937674   -6.5281493 
H     7.1360683   -0.2488561   -8.3199885 
H     9.5094094    0.0551569   -7.7867277 
H    10.2420727    0.1196812   -5.4323242 
N     8.4857433   -0.1356243   -3.3117677 
C     7.1495249   -0.3081880   -2.8248182 
H     9.3802247   -0.0239753   -2.7812880 
H     6.8787592   -0.3253890   -1.7723197 
