48
Energy =
C    -2.1555838    4.8419274   -2.8240064 
C    -1.8480034    3.5199796   -2.8272936 
C    -1.1705068    5.7736356   -2.9317424 
C     0.1167154    5.3751098   -3.0413449 
C     0.4282855    4.0562018   -3.0534003 
C    -0.5517053    3.1170444   -2.9396975 
H    -2.6449782    2.7875605   -2.7355226 
H     0.8974279    6.1234268   -3.1120566 
H     1.4696705    3.7577226   -3.1337557 
H    -3.1909218    5.1518946   -2.7332151 
C    -0.2044569    1.6411866   -2.9418328 
C     0.0891439    1.0519156   -1.5394990 
H     0.6785887    1.4775284   -3.5894942 
H    -1.0278489    1.0632816   -3.4140549 
C     1.3288538    1.6514063   -0.8837507 
O    -1.4556689    7.1432945   -2.9371793 
H    -2.4396241    7.3589485   -2.8228607 
O     1.3414344    2.8416775   -0.5322261 
N    -1.0852740    1.1496082   -0.6582155 
H     0.3084652   -0.0287832   -1.6868482 
H    -1.2469968    2.1548949   -0.4085518 
H    -1.9375117    0.8037928   -1.1556596 
N     2.5197809    0.8585711   -0.7056886 
C     3.7777956    1.6254694   -0.6809856 
H     2.4798237   -0.1840152   -0.6729194 
C     3.4866292    3.1237096   -0.6789399 
O     4.4992667    4.0410086   -0.9474494 
O     2.3420875    3.5247146   -0.4297146 
H     1.8338560    3.0773853    0.3075153 
C     4.6882765    1.1862786   -1.8484034 
H     4.3019663    1.4188603    0.2766234 
C     4.0898132    1.4838605   -3.2090125 
H     4.9114517    0.1026962   -1.7548226 
H     5.6674953    1.7095334   -1.7623102 
C     3.3630317    0.6533627   -3.9740627 
C     2.9765174   -0.6290428   -3.7480298 
C     2.2105536   -1.2513496   -4.6891971 
C     1.8468587   -0.5919126   -5.8303282 
C     2.2476688    0.6941724   -6.0378285 
C     3.0067195    1.2878033   -5.0932835 
H     3.2587797   -1.1547562   -2.8421197 
H     1.8870726   -2.2772841   -4.5309489 
H     1.2353006   -1.0946011   -6.5753653 
H     1.9638013    1.2334961   -6.9352388 
N     3.4993671    2.6190351   -5.1035531 
C     4.1873105    2.6657451   -3.8454503 
H     3.3901578    3.3619006   -5.8319531 
H     4.6991631    3.5445376   -3.4530839 
