48
Energy =
C    -3.6911780    4.4938307   -2.1491939 
C    -2.4238790    4.0694200   -2.3854858 
C    -4.7388116    3.6416315   -2.3096279 
C    -4.5100378    2.3686768   -2.7048149 
C    -3.2450199    1.9386595   -2.9419586 
C    -2.1935159    2.7888808   -2.7873241 
H    -1.5967683    4.7610314   -2.2464816 
H    -5.3533570    1.6981114   -2.8272798 
H    -3.0811015    0.9109567   -3.2553899 
H    -3.8643634    5.5157920   -1.8297917 
C    -0.7821044    2.3040751   -3.0345856 
C    -0.2279077    1.4747556   -1.8496905 
H    -0.1008392    3.1591805   -3.2444146 
H    -0.7781739    1.6839165   -3.9595901 
C     1.1175496    0.8386841   -2.1738243 
O    -6.0567841    4.0468848   -2.0740494 
H    -6.1438279    5.0138806   -1.7812542 
O     1.6667893    0.9416092   -3.4500266 
N    -0.1291038    2.3057952   -0.6390484 
H    -0.9180311    0.6239051   -1.6474951 
H     0.4012994    3.1883555   -0.8386510 
H    -1.0853944    2.5761696   -0.3100283 
N     1.7937190    0.0488319   -1.1863161 
C     3.0857784    0.5231435   -0.6472125 
H     1.3460855   -0.8318354   -0.8475977 
C     3.0864063    2.0090364   -0.2678657 
O     3.0688182    2.3605240    1.0773704 
O     3.1242928    3.0340869   -1.2181738 
H     3.1609857    2.6736410   -2.1599302 
C     4.2374834    0.1382031   -1.6027833 
H     3.2622881   -0.0073881    0.3157654 
C     4.3342846   -1.3615367   -1.7670722 
H     5.2050008    0.5303449   -1.2188679 
H     4.0867935    0.5999189   -2.6020389 
C     4.9388475   -2.2263628   -0.9382187 
C     5.6289722   -1.9960588    0.2082623 
C     6.1451295   -3.0657026    0.8794114 
C     5.9634883   -4.3343396    0.4013560 
C     5.2635008   -4.5410659   -0.7504282 
C     4.7645996   -3.4667733   -1.3971279 
H     5.7703342   -0.9895539    0.5905211 
H     6.7024551   -2.9089001    1.8000139 
H     6.3766048   -5.1819970    0.9424774 
H     5.1063575   -5.5405954   -1.1413832 
N     3.9997605   -3.4632825   -2.5943714 
C     3.7551847   -2.0596242   -2.7589972 
H     3.6947051   -4.2654355   -3.1917060 
H     3.1606355   -1.6239994   -3.5601195 
