48
Energy =
C     0.7126074   -3.3485893   -2.3232725 
C     0.1008714   -2.4999065   -1.4585891 
C     0.6167972   -3.1448907   -3.6639561 
C    -0.1047090   -2.1016079   -4.1313276 
C    -0.7284803   -1.2572805   -3.2724901 
C    -0.6252308   -1.4474119   -1.9280727 
H     0.1931057   -2.6696859   -0.3877595 
H    -0.1790021   -1.9522808   -5.2025391 
H    -1.3078442   -0.4282335   -3.6694968 
H     1.2782771   -4.1906321   -1.9402554 
C    -1.3101730   -0.5003685   -0.9624701 
C    -0.4525053    0.7338594   -0.5873776 
H    -1.5728468   -1.0494410   -0.0294848 
H    -2.2799151   -0.1646922   -1.3900914 
C     0.8803819    0.3456577    0.0349920 
O     1.2513183   -3.9890930   -4.5804458 
H     1.7688911   -4.7490841   -4.1528081 
O     0.8956480   -0.4728655    1.1597841 
N    -0.2956648    1.6374230   -1.7424105 
H    -0.9828785    1.2885434    0.2209777 
H     0.2837044    1.1769337   -2.4826259 
H    -1.2305875    1.8561088   -2.1600480 
N     2.0898076    1.0173848   -0.3364098 
C     3.2818195    0.1773128   -0.5321775 
H     2.0878148    2.0598155   -0.4314684 
C     4.5443087    0.9383145   -0.1443935 
O     5.3691777    1.4839041   -1.1206182 
O     4.8713627    1.1450719    1.1945915 
H     4.1267580    0.8470026    1.8100076 
C     3.2926455   -0.3227068   -1.9936560 
H     3.2494206   -0.6951857    0.1621004 
C     4.2980155   -1.4353096   -2.2082025 
H     3.4722573    0.5329120   -2.6793148 
H     2.2854205   -0.7099111   -2.2589623 
C     5.4368435   -1.3862810   -2.9213954 
C     5.9915657   -0.3612736   -3.6198798 
C     7.1732454   -0.5791513   -4.2650674 
C     7.7772523   -1.8040461   -4.2064099 
C     7.2042974   -2.8184923   -3.4995340 
C     6.0358829   -2.5784389   -2.8682317 
H     5.5265213    0.6184414   -3.6619037 
H     7.6398923    0.2290938   -4.8232592 
H     8.7204996   -1.9680237   -4.7213661 
H     7.6721969   -3.7951727   -3.4400667 
N     5.2845273   -3.4928923   -2.0827871 
C     4.1762639   -2.6722201   -1.6934384 
H     5.4912980   -4.4934391   -1.8588071 
H     3.3576142   -3.0042303   -1.0588552 
