48
Energy =
C    -4.4015044    1.3896741   -3.3855906 
C    -3.0817980    1.7057301   -3.3810843 
C    -5.2191385    1.8550688   -2.4036685 
C    -4.7092892    2.6347080   -1.4232683 
C    -3.3902258    2.9540056   -1.4136201 
C    -2.5682870    2.4927295   -2.3960167 
H    -2.4398550    1.3249864   -4.1714745 
H    -5.3720400    2.9987678   -0.6458814 
H    -3.0001164    3.5783575   -0.6142284 
H    -4.8006147    0.7631011   -4.1758682 
C    -1.0934269    2.8289184   -2.3832288 
C    -0.2235743    1.6553511   -1.8651159 
H    -0.8979603    3.7402030   -1.7740618 
H    -0.7824640    3.0942383   -3.4194503 
C     1.2693635    1.9256959   -2.0252230 
O    -6.5831114    1.5463504   -2.3771910 
H    -6.8881233    0.9637217   -3.1492062 
O     1.6901637    3.1383020   -2.5582390 
N    -0.5433888    1.3536732   -0.4600291 
H    -0.4309449    0.7541826   -2.4869518 
H    -0.4746663    2.2242812    0.1192959 
H    -1.5263605    1.0000229   -0.3868215 
N     2.2142919    0.8942314   -1.6622974 
C     3.6932353    1.0184020   -1.7655776 
H     1.8026104   -0.0133780   -1.3511546 
C     4.2377974    2.4030897   -2.1440372 
O     4.7596601    3.2204507   -1.1466236 
O     4.3142796    2.8348086   -3.4707586 
H     3.7317332    2.2676850   -4.0683622 
C     4.2334061   -0.1057983   -2.7001912 
H     4.1104120    0.8643802   -0.7443323 
C     4.7264594   -1.3383792   -1.9545251 
H     5.0646805    0.2961802   -3.3167756 
H     3.4445229   -0.4191649   -3.4191792 
C     5.8205217   -2.0696146   -2.2445534 
C     6.7597102   -1.8983936   -3.2139049 
C     7.7812451   -2.7984801   -3.2965135 
C     7.8498512   -3.8479915   -2.4239644 
C     6.8961982   -4.0052926   -1.4638747 
C     5.8967461   -3.1008399   -1.3997973 
H     6.7148633   -1.0733315   -3.9163471 
H     8.5448567   -2.6809130   -4.0618806 
H     8.6667650   -4.5615756   -2.4972921 
H     6.9328647   -4.8353802   -0.7665719 
N     4.8075884   -3.0968168   -0.4912345 
C     4.0925792   -1.9342566   -0.9246327 
H     4.5866186   -3.7636706    0.2834071 
H     3.1653194   -1.5989325   -0.4732119 
