48
 energy: -9.072068019803 gnorm: 0.000726420075 xtb: 6.6.0 (2ccbbd7)
C            5.12033730844006       -1.75311298353463        0.24394198187825
C            4.05910135401065       -1.10660540216365        0.83200277760860
C            6.40302680274457       -1.20649854629453        0.29928759606989
C            6.57172995731110        0.01641392261215        0.94793635656016
C            5.50475161189706        0.65941347699842        1.52854758631167
C            4.23511283587440        0.10123290710201        1.49180157251145
H            3.06895355768015       -1.52563601412392        0.77106070633083
H            7.55708895426548        0.44548081483115        0.97706928221917
H            5.64733903422487        1.60796563191072        2.01708737950601
H            4.97115580315495       -2.68816450662642       -0.26545893093719
C            3.06749809295025        0.80788176002701        2.10940591132426
C            2.25836754151269        1.64046109688170        1.11029082684710
H            3.41602811873481        1.44553954446183        2.92786344038335
H            2.40036562259895        0.07152666226105        2.56777652615617
C            1.62967505071005        0.75057620150421        0.06370440933599
O            7.49472383774819       -1.83910819419537       -0.26520714304188
H            7.21029883545694       -2.67716434301260       -0.69024417450670
O            0.68307951244322        0.07782688559436        0.41776607607046
N            1.18102323781337        2.37333051479575        1.75853584390644
H            2.91693728956706        2.37538945375290        0.62590592280264
H            0.42835093863987        1.71545941404698        1.93801919861648
H            1.48232490223229        2.77320643684097        2.63924667481700
N            2.12115702264981        0.70631736845541       -1.22274253431812
C            3.39961734861978        1.30094361632671       -1.63735907908454
H            1.70669144833146        0.04978634047604       -1.88009669916667
C            3.30116195678271        2.79708506343868       -1.66527415034767
O            4.42610119192359        3.54067356905840       -1.47406263109564
O            2.06482522324541        3.35801409749364       -1.88469543098799
H            1.36968067834591        2.66157792508867       -1.84493363479338
C            3.89647251894637        0.73361109226003       -2.98807278043115
H            4.13015280226052        1.02447708391769       -0.86545991477332
C            5.34872514807610        0.38060012832837       -2.98851757712710
H            3.68956208807389        1.45364763641857       -3.78636215511536
H            3.32261840200635       -0.16378153865442       -3.24084299224174
C            6.41100039822821        1.12701835202952       -2.39986043725166
C            6.44681862835915        2.33853804031686       -1.70122947049106
C            7.63525883167675        2.78798816904275       -1.20989594283306
C            8.81768025802130        2.05181863384453       -1.39463350207077
C            8.81309410755427        0.86765019965695       -2.08079993969396
C            7.59869874345404        0.39569477056670       -2.59605363239923
H            5.39451264101922        2.96213512792706       -1.57290863246117
H            7.66516782240864        3.72170783902380       -0.67369508132286
H            9.74182920526485        2.42872447221867       -0.98899726328174
H            9.71059816638498        0.29239782651810       -2.22043719518826
N            7.26579732750839       -0.74783996637885       -3.29962219323886
C            5.91132472569335       -0.75006627494313       -3.52838117587470
H            7.92782409326616       -1.48464873705632       -3.55011499517077
H            5.37397261513295       -1.53421326655897       -4.03651101623052
