48
Energy =
C     0.5621138    6.9761361   -5.2888020 
C     0.3836169    6.2133227   -4.1809089 
C     1.7866378    7.0544633   -5.8748408 
C     2.8264881    6.3724667   -5.3443258 
C     2.6544080    5.6084232   -4.2366461 
C     1.4286566    5.5212900   -3.6481511 
H    -0.6027311    6.1591821   -3.7268062 
H     3.7996001    6.4482906   -5.8178714 
H     3.5083055    5.0777934   -3.8234490 
H    -0.2780286    7.5213937   -5.7057538 
C     1.2272482    4.6406764   -2.4338148 
C     0.9267020    3.1703305   -2.8249357 
H     0.4094594    5.0361962   -1.7904115 
H     2.1419234    4.6897871   -1.7937517 
C     1.2060289    2.2347927   -1.6557379 
O     2.0035651    7.8253228   -7.0207586 
H     1.1794644    8.3177602   -7.3487296 
O     0.6683217    2.5431148   -0.4118472 
N    -0.4648687    3.0235348   -3.2872699 
H     1.6058259    2.8498629   -3.6459718 
H    -1.1278616    3.3200326   -2.5290124 
H    -0.6393400    3.6286232   -4.1231033 
N     1.6491074    0.8873409   -1.8887436 
C     3.1125586    0.6403545   -1.7486365 
H     1.2159494    0.5206861   -2.7629796 
C     3.9904475    1.8403305   -1.3514139 
O     4.7386312    1.7661915   -0.1855702 
O     4.0973597    2.9988332   -2.1208707 
H     3.7314627    2.8562611   -3.0400451 
C     3.6711122   -0.2016395   -2.9311821 
H     3.2096561   -0.0201133   -0.8553077 
C     3.6658861    0.5003520   -4.2750826 
H     3.0771488   -1.1398080   -3.0132350 
H     4.7045439   -0.5353549   -2.6881483 
C     4.6660929    1.2165562   -4.8174536 
C     5.8942316    1.5144039   -4.3197065 
C     6.7240751    2.2985220   -5.0658965 
C     6.3199162    2.7681241   -6.2849531 
C     5.0821194    2.4578909   -6.7639979 
C     4.2803493    1.6797033   -6.0072233 
H     6.2103561    1.1622567   -3.3415179 
H     7.7090425    2.5574618   -4.6845332 
H     6.9867379    3.3940365   -6.8727233 
H     4.7443875    2.8258262   -7.7270873 
N     2.9589932    1.2600206   -6.3099535 
C     2.6380748    0.4929260   -5.1433962 
H     2.3768298    1.4673807   -7.1537105 
H     1.7019881   -0.0428362   -5.0044401 
