48
Energy =
C     1.6166987    5.2101483    2.4157948 
C     1.5117031    3.9861898    1.8402457 
C     0.6796546    6.1641934    2.1693788 
C    -0.3545940    5.8872818    1.3427761 
C    -0.4635942    4.6652736    0.7627467 
C     0.4658248    3.7032828    1.0147881 
H     2.2741014    3.2378089    2.0388146 
H    -1.0916172    6.6588214    1.1473788 
H    -1.2960491    4.4651389    0.0931140 
H     2.4532613    5.4253727    3.0709242 
C     0.3606476    2.3498808    0.3451265 
C     0.9996890    2.3581755   -1.0604002 
H    -0.7111929    2.0655711    0.2604478 
H     0.8367645    1.5665921    0.9739039 
C     2.4884271    2.6561764   -1.0043147 
O     0.7547801    7.4342720    2.7511810 
H     1.5697387    7.5752923    3.3381588 
O     2.9293632    3.7199777   -1.4621523 
N     0.7355246    1.0751505   -1.7345319 
H     0.5520885    3.1835284   -1.6666899 
H     1.1001657    0.2829996   -1.1551949 
H    -0.2964023    0.9397654   -1.8473339 
N     3.4301341    1.6795857   -0.5325187 
C     4.6265814    1.5848306   -1.3830961 
H     3.2572835    1.1117170    0.3244306 
C     4.8417214    2.9201243   -2.1141358 
O     5.9432609    3.1063273   -2.9428119 
O     4.0365336    3.8522530   -1.9485094 
H     3.7520263    4.0958582   -1.0235982 
C     4.4111218    0.3994373   -2.3448550 
H     5.5213655    1.4093027   -0.7478788 
C     5.6355516    0.0869404   -3.1768505 
H     3.5281773    0.6037529   -2.9911457 
H     4.1488620   -0.5032795   -1.7514925 
C     5.8648421    0.4415499   -4.4523698 
C     5.0956503    1.1585920   -5.3125652 
C     5.5684454    1.3833483   -6.5719130 
C     6.7881425    0.8942911   -6.9498039 
C     7.5446298    0.1800587   -6.0689823 
C     7.0560501   -0.0284486   -4.8281940 
H     4.1349089    1.5655897   -5.0115844 
H     4.9754153    1.9632899   -7.2747790 
H     7.1594390    1.0827621   -7.9537815 
H     8.5169009   -0.2090311   -6.3508686 
N     7.6829225   -0.7369302   -3.7676415 
C     6.6975775   -0.6093280   -2.7344752 
H     8.6076758   -1.2244724   -3.7526494 
H     6.8001369   -1.0210032   -1.7337428 
