48
Energy =
C    -2.9934369    1.9995769    2.5681756 
C    -1.7419292    2.2154738    2.0895833 
C    -4.0738222    2.1747904    1.7609625 
C    -3.8935807    2.5651055    0.4787422 
C    -2.6445289    2.7819855   -0.0052776 
C    -1.5600039    2.6113224    0.7995008 
H    -0.8880990    2.0655646    2.7451862 
H    -4.7629027    2.7008621   -0.1551875 
H    -2.5198604    3.0934509   -1.0393123 
H    -3.1277516    1.6848181    3.5973868 
C    -0.1668306    2.8363096    0.2541954 
C     0.3298599    1.6406738   -0.5983627 
H     0.5532839    3.0352015    1.0785723 
H    -0.1792862    3.7655375   -0.3610239 
C     1.6252530    1.9769851   -1.3357507 
O    -5.3766038    1.9591306    2.2222162 
H    -5.4273902    1.6745475    3.1942122 
O     1.7458679    3.2458269   -1.8884513 
N     0.4777386    0.4404220    0.2472643 
H    -0.4091261    1.4350331   -1.4080570 
H     1.0616144    0.6607931    1.0892224 
H    -0.4621804    0.1278395    0.5894196 
N     2.5519942    0.9230821   -1.6875954 
C     3.7827722    1.1173045   -2.5012918 
H     2.2365473   -0.0484758   -1.4677779 
C     3.9582626    2.4982067   -3.1466768 
O     3.4641467    2.7360691   -4.4266124 
O     4.6695358    3.5136970   -2.5022975 
H     4.8122684    3.3059635   -1.5251061 
C     3.8625354    0.0031900   -3.5754600 
H     4.6559367    1.0006032   -1.8233953 
C     4.1203595   -1.3621086   -2.9751448 
H     4.6754463    0.2225944   -4.3042245 
H     2.9148503   -0.0072226   -4.1614849 
C     5.2905661   -1.8248383   -2.5083649 
C     6.5095183   -1.2276575   -2.4700513 
C     7.5544115   -1.9223824   -1.9351099 
C     7.3675364   -3.1887209   -1.4532006 
C     6.1344206   -3.7684452   -1.5041964 
C     5.1168463   -3.0607789   -2.0381194 
H     6.6597997   -0.2235697   -2.8559919 
H     8.5413002   -1.4674964   -1.8930336 
H     8.2054446   -3.7362334   -1.0288816 
H     5.9691553   -4.7721210   -1.1274920 
N     3.7660794   -3.4750962   -2.1857131 
C     3.1887059   -2.3163054   -2.8009680 
H     3.3164648   -4.3802287   -1.9171828 
H     2.1404960   -2.2256393   -3.0766371 
