48
Energy =
C     2.8964949   -4.0013247    0.9012299 
C     2.5582046   -2.7314487    1.2422187 
C     4.1860319   -4.4182106    1.0131607 
C     5.1268320   -3.5628263    1.4719555 
C     4.7960187   -2.2906220    1.8058898 
C     3.5062980   -1.8685714    1.6995565 
H     1.5247751   -2.4075902    1.1384655 
H     6.1513263   -3.9067312    1.5568510 
H     5.5712259   -1.6134834    2.1545984 
H     2.1346984   -4.6788506    0.5309209 
C     3.1480735   -0.4394809    2.0470300 
C     3.2963487    0.5003534    0.8213084 
H     3.8094814   -0.0973359    2.8728905 
H     2.1146230   -0.3827667    2.4583858 
C     2.1063568    0.4201620   -0.1476504 
O     4.5727841   -5.7141766    0.6558877 
H     3.8058135   -6.3000527    0.3437121 
O     0.9304667   -0.1902029    0.2766866 
N     3.4897852    1.8847377    1.2853202 
H     4.1970640    0.1700253    0.2560604 
H     2.6924895    2.1561686    1.9115881 
H     4.3683675    1.9500013    1.8519306 
N     2.0924939    0.9723382   -1.4834909 
C     3.3070704    1.6859624   -1.9666753 
H     1.2340021    1.5714197   -1.5296648 
C     2.9946878    3.1202330   -2.3991323 
O     3.0613821    3.4836116   -3.7392581 
O     2.6432731    4.0893333   -1.4622411 
H     2.6079131    3.7053119   -0.5282413 
C     3.9040555    0.8648338   -3.1259331 
H     4.0935433    1.8144960   -1.1991057 
C     4.3570337   -0.5039222   -2.6695035 
H     4.7529029    1.4101421   -3.5948192 
H     3.1341228    0.7526566   -3.9235386 
C     5.5669607   -0.8383436   -2.1952261 
C     6.6726336   -0.0723251   -2.0096816 
C     7.7923220   -0.6639937   -1.5020904 
C     7.7900797   -1.9964305   -1.1925114 
C     6.6666595   -2.7441519   -1.3845344 
C     5.5704701   -2.1348627   -1.8811825 
H     6.6767848    0.9858132   -2.2543094 
H     8.6927025   -0.0740190   -1.3465727 
H     8.6875577   -2.4627295   -0.7935368 
H     6.6452417   -3.8028127   -1.1449859 
N     4.3030919   -2.7226794   -2.1333453 
C     3.5707369   -1.5939241   -2.6303641 
H     3.9957262   -3.7124996   -1.9902517 
H     2.5145583   -1.6070312   -2.8991392 
