48
Energy =
C     6.9923945   -1.3620186    4.3311127 
C     6.1701093   -1.1216522    3.2787285 
C     6.6708316   -2.3154261    5.2457913 
C     5.5268545   -3.0221630    5.1005645 
C     4.7007089   -2.7862695    4.0498791 
C     5.0200844   -1.8351083    3.1300777 
H     6.4391414   -0.3544152    2.5556456 
H     5.2815808   -3.7785918    5.8381442 
H     3.7839462   -3.3616900    3.9537296 
H     7.9070107   -0.7890520    4.4392478 
C     4.0995334   -1.5540651    1.9641936 
C     3.2449792   -0.2834000    2.1858009 
H     3.4351245   -2.4232058    1.7598851 
H     4.7242504   -1.4309529    1.0511940 
C     2.5178456    0.1094439    0.9144680 
O     7.4948519   -2.5877880    6.3424968 
H     8.3337347   -2.0187384    6.3793284 
O     1.5655884   -0.7467842    0.3644999 
N     2.2870728   -0.4821850    3.2834365 
H     3.9118454    0.5748329    2.4394432 
H     1.6940359   -1.3245110    3.0920508 
H     2.8006391   -0.6418484    4.1808807 
N     3.0095811    1.2048216    0.1280017 
C     3.6912397    0.7268262   -1.1016518 
H     2.1781808    1.8019598   -0.0901182 
C     4.9548271    1.5372236   -1.3697146 
O     6.1645770    0.8746227   -1.5407331 
O     4.9305721    2.9279455   -1.4787313 
H     4.0253762    3.2971262   -1.2303313 
C     2.7224288    0.7617821   -2.3095655 
H     4.0541190   -0.3217622   -0.9728917 
C     3.2467026   -0.0663313   -3.4593345 
H     2.5537296    1.8094502   -2.6437417 
H     1.7256253    0.3706016   -2.0091034 
C     3.1250715   -1.3943993   -3.6070695 
C     2.5013727   -2.3046018   -2.8146689 
C     2.5326942   -3.6171968   -3.1882914 
C     3.1829747   -3.9941120   -4.3313394 
C     3.8067158   -3.0617971   -5.1068071 
C     3.7584593   -1.7706441   -4.7182954 
H     1.9919695   -2.0018565   -1.9021028 
H     2.0406954   -4.3687746   -2.5740102 
H     3.2072147   -5.0414028   -4.6227819 
H     4.3329921   -3.3438095   -6.0122964 
N     4.3530207   -0.6550412   -5.3658318 
C     3.9823901    0.4089051   -4.4787954 
H     4.9049571   -0.6197746   -6.2529933 
H     4.2898604    1.4460292   -4.5982737 
