48
Energy =
C    -0.4615265    3.4723419   -2.9285351 
C    -0.3754590    2.9598543   -1.6752112 
C     0.5868266    4.1522286   -3.4625681 
C     1.7204150    4.3030730   -2.7430168 
C     1.8107031    3.7991560   -1.4851678 
C     0.7621935    3.1214769   -0.9412939 
H    -1.2263994    2.4207755   -1.2672806 
H     2.5579873    4.8216234   -3.1971903 
H     2.7311238    3.9326758   -0.9259138 
H    -1.3736029    3.3429580   -3.5010187 
C     0.8427002    2.5710910    0.4708133 
C     1.8638590    1.4226610    0.6668341 
H    -0.1571129    2.2005287    0.7909906 
H     1.0813516    3.4080549    1.1618734 
C     1.6933594    0.2798103   -0.3318755 
O     0.5195959    4.7147478   -4.7412256 
H    -0.3289284    4.4886927   -5.2475051 
O     1.1528868   -0.9196642    0.1154328 
N     3.2370119    1.9552410    0.6921182 
H     1.6440919    0.9602665    1.6604666 
H     3.3263078    2.6490184    1.4718580 
H     3.8932712    1.1758150    0.9406232 
N     1.8751598    0.4516306   -1.7429720 
C     3.2502049    0.5964574   -2.2609290 
H     1.0225631    0.5131669   -2.3429686 
C     3.2602184    1.2832668   -3.6150411 
O     4.0217180    2.4337907   -3.7783936 
O     2.5686805    0.7713920   -4.7114526 
H     2.0938393   -0.0887000   -4.4835941 
C     3.9375891   -0.7887496   -2.3313942 
H     3.8350156    1.2912513   -1.6198393 
C     4.5852946   -1.1571010   -1.0164844 
H     4.7240529   -0.7986703   -3.1205964 
H     3.1946991   -1.5644260   -2.6239211 
C     5.7335079   -0.6633852   -0.5284815 
C     6.5888303    0.2421559   -1.0688537 
C     7.6929400    0.5974529   -0.3515017 
C     7.9214538    0.0506455    0.8812705 
C     7.0460598   -0.8544786    1.4046245 
C     5.9625635   -1.1916503    0.6743342 
H     6.4056380    0.6816573   -2.0465034 
H     8.3940877    1.3202782   -0.7626280 
H     8.8040961    0.3395093    1.4465532 
H     7.2103237   -1.2948020    2.3822862 
N     4.9249223   -2.0901753    1.0398194 
C     4.0704990   -2.0066821   -0.1111357 
H     4.8112495   -2.6558942    1.9124087 
H     3.1182777   -2.5275088   -0.2192007 
