48
 energy: -9.174725844143 gnorm: 0.000469451184 xtb: 6.6.0 (2ccbbd7)
C           -3.40043922116461        3.86614126648567        0.00014942891774
C           -2.02817693399308        3.77777795310195        0.02256889992003
C           -4.18632265230508        2.86829005757443        0.57822989829310
C           -3.54318304501120        1.78386420288284        1.17436508121721
C           -2.17112249942515        1.70306802411390        1.19351010283656
C           -1.39304561507145        2.70071984921301        0.62344323999568
H           -1.43042989137529        4.55060610314041       -0.42956228494367
H           -4.14824469603144        1.01440060462655        1.61951159849010
H           -1.68804250856623        0.85886560902000        1.65479314009570
H           -3.88239699724031        4.70719388057628       -0.46524552165749
C            0.10014378226275        2.59707984893789        0.61636342272475
C            0.66867235512886        2.12591314316461       -0.72659905237173
H            0.42546590209318        1.90526684101067        1.39883120809861
H            0.53879360171142        3.56532937587675        0.88033699309146
C            2.16085953144694        2.08493760756519       -0.68257676660676
O           -5.56753502035638        2.92711717899329        0.57322540292335
H           -5.86600407636362        3.75082392710443        0.12996676962083
O            2.85288275265444        3.12393692940229       -0.04606288695786
N            0.13641487460851        0.82611269092892       -1.12112174422933
H            0.38338590808524        2.84733106341665       -1.50847719185055
H            0.43030444364144        0.13057984620037       -0.44822586048627
H           -0.87502400373935        0.84395672547178       -1.11007325245630
N            2.82125390981645        1.02906787060515       -1.27659825980757
C            4.27085318569053        1.02632433591843       -1.47830582397186
H            2.32311701651744        0.54159584613455       -2.02441606167072
C            4.80650769218524        2.43678259465177       -1.58719973203396
O            5.62145315952873        2.70791483276291       -2.46583077117871
O            4.36105257197457        3.36232351845536       -0.62454045864215
H            3.91627582848687        2.82722207608448        0.29458976184281
C            4.67765874899738        0.15576449402071       -2.69075775673300
H            4.71428224320745        0.60030451347166       -0.56534581130286
C            3.69859041771874        0.19616284267101       -3.81837849643693
H            4.79617218443433       -0.88729204161091       -2.37723630495999
H            5.66067236980537        0.47748101650679       -3.05074499518599
C            3.42969474975266        1.28143250008226       -4.70714364443497
C            3.98141158756042        2.56553930842521       -4.85375268659469
C            3.49405501143442        3.38987136020325       -5.82857923166016
C            2.45287099846404        2.97484583794699       -6.67414135643206
C            1.88724328168814        1.73598439616514       -6.54320050059840
C            2.37472063358438        0.87786658010628       -5.54893921783926
H            4.75357891884831        2.88787021908347       -4.17975195843496
H            3.90970388199664        4.37702125423622       -5.94600807936480
H            2.09159457673712        3.64711026545599       -7.43475968614077
H            1.08533570556050        1.41147533629199       -7.18176865696955
N            2.00384076109773       -0.39897494767504       -5.16748777500508
C            2.80557337893332       -0.80123656952505       -4.12874919545955
H            1.24846180541309       -0.93725357330785       -5.59607425255129
H            2.72379334053979       -1.74842211467984       -3.62059213798258
