48
Energy =
C    -0.4292795    0.4548647   -0.5736881 
C     0.3056143    0.6360317   -1.6983687 
C    -1.7171248    0.8872120   -0.5244883 
C    -2.2570953    1.5036317   -1.6012291 
C    -1.5231002    1.6894212   -2.7283545 
C    -0.2371470    1.2471500   -2.7859866 
H     1.3354190    0.3003697   -1.7240071 
H    -3.2835661    1.8499981   -1.5465753 
H    -1.9717955    2.1941345   -3.5798362 
H     0.0178238   -0.0319528    0.2859738 
C     0.5966008    1.4688152   -4.0302039 
C     1.3915885    2.7927970   -3.9577453 
H    -0.0645009    1.4782142   -4.9245251 
H     1.2985216    0.6160156   -4.1747428 
C     2.4378685    2.7690844   -2.8605112 
O    -2.5061106    0.7119631    0.6170047 
H    -2.0229439    0.2642245    1.3880568 
O     2.2351685    3.5620801   -1.7335256 
N     2.0059086    3.0809368   -5.2637825 
H     0.7016375    3.6283340   -3.6844631 
H     2.5538477    2.2514411   -5.5940737 
H     1.2567472    3.2583533   -5.9734185 
N     3.5127202    1.8079068   -2.9008742 
C     4.3106493    1.7586549   -1.6514732 
H     4.1301512    2.0877572   -3.6992992 
C     5.3412826    2.8930079   -1.5658065 
O     6.5131334    2.8067850   -2.3091435 
O     5.1630354    4.0010387   -0.7390938 
H     4.2090621    4.0692923   -0.4147393 
C     5.0106461    0.3844000   -1.5762995 
H     3.6496793    1.8364123   -0.7580782 
C     4.0122303   -0.7439107   -1.4508032 
H     5.7142177    0.3518225   -0.7148560 
H     5.6301592    0.2346170   -2.4897226 
C     3.3806123   -1.1398939   -0.3345330 
C     3.4820607   -0.6716859    0.9356764 
C     2.6959263   -1.2344620    1.8980726 
C     1.8279872   -2.2423554    1.5791630 
C     1.7404164   -2.6931673    0.2954109 
C     2.5322128   -2.1239830   -0.6373065 
H     4.1654524    0.1335138    1.1888200 
H     2.7589704   -0.8786627    2.9240549 
H     1.2040411   -2.6854098    2.3517135 
H     1.0521738   -3.4865884    0.0236554 
N     2.5717606   -2.4187724   -2.0262206 
C     3.5512745   -1.4750429   -2.4801934 
H     2.0266966   -3.1259617   -2.5709209 
H     3.8519566   -1.3488076   -3.5181203 
