48
 energy: -9.283852450839 gnorm: 0.000805030640 xtb: 6.6.0 (2ccbbd7)
C           -3.93842463447148       -0.11120500156628       -0.76862665198454
C           -2.62899246054126       -0.14681726727754       -1.18599934420736
C           -4.60500865542324        1.10616889102804       -0.62596753372092
C           -3.90765506784088        2.27865360878289       -0.91464304470281
C           -2.59895439708472        2.23459479567421       -1.33233342585932
C           -1.94210890584177        1.02160478222470       -1.48058190226297
H           -2.12125777349459       -1.09073122282164       -1.28698885913377
H           -4.42068494048819        3.21690180133172       -0.80173844842013
H           -2.07187313639825        3.14783650827625       -1.54866699319936
H           -4.46225386072816       -1.02348545667614       -0.54648352430873
C           -0.50682509573068        0.97101928625938       -1.90020080109538
C            0.45417674125092        0.80567973127288       -0.72033598925002
H           -0.25028049969888        1.88190151846751       -2.44817465017509
H           -0.36139555727735        0.14950038994550       -2.60932054981139
C            1.87408615328022        0.60033040532988       -1.19990024769509
O           -5.92098229092926        1.17753039893577       -0.21065610006789
H           -6.27147968295279        0.27484761831796       -0.05096542877731
O            2.41430735905637       -0.46712237122648       -0.99244986651258
N            0.37864007853764        1.91124621365492        0.22517375964121
H            0.17979176431571       -0.10590746734315       -0.16565811240523
H            0.69097281443969        2.77024438677656       -0.20769059472565
H           -0.57586959051759        2.05460162915550        0.52983033433577
N            2.47723073695197        1.64003597371231       -1.86926989350410
C            3.90059502618980        1.64216613219889       -2.19487037047606
H            2.04508233606189        2.56402721484888       -1.89481299640082
C            4.17588621830119        2.77119324126272       -3.16176966829923
O            5.10986886099177        3.51298159331572       -2.94707066757707
O            3.34909379279256        2.82995207166524       -4.23417524861634
H            2.64582594736598        2.14269602664459       -4.15679297127773
C            4.36709109581801        0.30405502178358       -2.76932082877652
H            4.45064138470319        1.84618619334001       -1.26523724112836
C            5.83965340018482        0.19310900040624       -2.98723801126950
H            3.84399365370698        0.11466169930022       -3.71057246114186
H            4.05323622725010       -0.49212341490494       -2.08745283847909
C            6.61216414076673        0.79960826399895       -4.02362547677603
C            6.29473301132309        1.68475520903014       -5.06938390436999
C            7.29068543871955        2.09774816539900       -5.90901056680895
C            8.61203850826592        1.65342039003067       -5.74217973434613
C            8.94906531450962        0.80108109156640       -4.72680376390184
C            7.94279909403229        0.36971195714542       -3.85343179786863
H            5.29489641376151        2.07258719407155       -5.15606163966111
H            7.06251194107187        2.79113644559869       -6.70152634483054
H            9.37404538051135        2.00043133823874       -6.42025779180603
H            9.95990492263500        0.46322987653732       -4.58478896672849
N            7.97382913939088       -0.45934578691648       -2.74655490082874
C            6.70676572692637       -0.55407344526213       -2.22880188316342
H            8.81688198637078       -0.89607183303164       -2.36922638846189
H            6.43585714150913       -1.13923280451173       -1.36461889269585
