48
Energy =
C     1.2799827   -3.6502118   -3.2994982 
C     1.1403186   -2.5620075   -2.5065891 
C     0.2592902   -4.5447469   -3.3744432 
C    -0.9002733   -4.3139099   -2.7055008 
C    -1.0774573   -3.1841884   -1.9656982 
C    -0.0811109   -2.2696298   -1.8659398 
H     2.5646827    0.1636228   -2.0015364 
H    -1.6975969   -5.0447620   -2.7871767 
H    -2.0253505   -3.0218590   -1.4602655 
H     2.1878775   -3.7953377   -3.8741662 
C    -0.2639878   -0.9157413   -0.9840828 
C     0.0046162    0.6271710   -1.5366883 
H     0.3497144   -1.0437976   -0.0630607 
H    -1.3076853   -0.9254695   -0.5979305 
C     1.2200128    1.5459444   -0.9770180 
O     0.3649275   -5.7052396   -4.1471981 
H     1.2586805   -5.8109057   -4.6150030 
O     1.3349893    1.6854851    0.3975193 
N    -0.1328291    0.6963505   -3.0031180 
H    -0.8592646    1.2060897   -1.1304681 
H     0.7844259    0.6793211   -3.5086695 
H    -0.7595631   -0.0568811   -3.3757453 
N     2.2367448    2.2512721   -1.8370720 
C     3.7555860    1.9277887   -1.6313345 
H     2.0549395    3.2671308   -1.6600225 
C     4.5934848    3.1996353   -1.5581363 
O     4.2376877    4.3064086   -2.3184311 
O     5.7683104    3.2558485   -0.8068920 
H     5.9635110    2.3913857   -0.3234820 
C     4.4359780    0.8949648   -2.7615764 
H     3.8804704    1.4524062   -0.6314034 
C     4.4195001   -0.7319206   -2.5301752 
H     5.4713323    1.2261628   -2.9713247 
H     3.9045475    1.0844547   -3.7190805 
C     5.5205440   -1.4633962   -2.2792405 
C     6.8337960   -1.1031714   -2.3275875 
C     7.7790116   -2.0276138   -1.9956595 
C     7.4092528   -3.2834248   -1.6106778 
C     6.0917086   -3.6203200   -1.5530760 
C     5.1714906   -2.6923409   -1.8949404 
H     7.1500449   -0.1113096   -2.6269145 
H     8.8331487   -1.7617964   -2.0335301 
H     8.1678409   -4.0142148   -1.3409657 
H     5.7803004   -4.6084900   -1.2323132 
N     3.7626691   -2.8554295   -1.8373631 
C     3.2636038   -1.5867042   -2.3394616 
H     3.2732979   -3.7336275   -1.5442404 
H     1.6407598   -0.9346513   -2.1785095 
