48
Energy =
C     0.1574202    6.6784727   -0.6804323 
C    -0.5111580    5.5135858   -0.4826148 
C     1.5075623    6.7274877   -0.5224209 
C     2.1798212    5.6110610   -0.1647136 
C     1.5141469    4.4505131    0.0568298 
C     0.1622505    4.3914375   -0.1071992 
H    -1.5869390    5.4848687   -0.6360183 
H     3.2599734    5.6599851   -0.0761189 
H     2.0766055    3.5572092    0.3232609 
H    -0.3893315    7.5675727   -0.9764792 
C    -0.5722550    3.0745696    0.0568646 
C    -0.4856069    2.2071739   -1.2208869 
H    -1.6406387    3.2610125    0.3005845 
H    -0.1488946    2.5138903    0.9195424 
C     0.9502234    1.8179824   -1.5248695 
O     2.2268685    7.9103219   -0.7207602 
H     1.6577294    8.6954110   -1.0199407 
O     1.6344070    2.6421623   -2.4154438 
N    -1.3548097    1.0237293   -1.0925959 
H    -0.8185156    2.8142154   -2.0987623 
H    -1.2376880    0.5842822   -0.1494059 
H    -2.3551233    1.3261812   -1.1605783 
N     1.6862564    1.0052746   -0.5777581 
C     2.9638947    0.4511583   -1.0935496 
H     1.0649349    0.2070512   -0.3162789 
C     4.0331206    1.5286129   -1.2276101 
O     5.3052211    1.3087897   -0.7159843 
O     3.7622887    2.7237876   -1.8797115 
H     2.6989661    2.6819146   -2.1457646 
C     2.7494286   -0.3196823   -2.4202487 
H     3.3669402   -0.2489652   -0.3255895 
C     3.9065067   -1.2446550   -2.7197969 
H     2.6294185    0.3994749   -3.2622070 
H     1.7990063   -0.8916025   -2.3842547 
C     4.0847290   -2.4902343   -2.2527175 
C     3.2953155   -3.2358950   -1.4373056 
C     3.7154541   -4.4895228   -1.0979467 
C     4.9057483   -4.9700292   -1.5704157 
C     5.6839239   -4.2001160   -2.3831776 
C     5.2452734   -2.9658375   -2.7067782 
H     2.3556563   -2.8497815   -1.0548014 
H     3.1049257   -5.1098006   -0.4450124 
H     5.2373416   -5.9679775   -1.2934651 
H     6.6346312   -4.5621665   -2.7603423 
N     5.9053685   -2.0046959   -3.5171057 
C     4.9756597   -0.9143023   -3.4645486 
H     6.8166346   -2.0729162   -4.0258552 
H     5.1384873    0.0585687   -3.9270710 
