48
Energy =
C     1.5766241   -2.3131517    3.6490742 
C     0.9089066   -1.7853579    2.5920458 
C     2.7727932   -2.9322033    3.4615276 
C     3.2952080   -3.0135485    2.2166621 
C     2.6307567   -2.4888055    1.1567051 
C     1.4288121   -1.8766638    1.3367319 
H    -0.0428892   -1.2877139    2.7567175 
H     4.2554691   -3.4988005    2.0803015 
H     3.0738611   -2.5504098    0.1684148 
H     1.1529406   -2.2374408    4.6445584 
C     0.6912798   -1.2766339    0.1592260 
C     0.9485969    0.2403750    0.0167876 
H    -0.3991144   -1.4562959    0.2853236 
H     0.9757101   -1.7963304   -0.7795829 
C     2.4098604    0.5594152   -0.2919887 
O     3.4828425   -3.4934083    4.5278865 
H     3.0404221   -3.3674976    5.4316631 
O     3.3227981    0.5856235    0.7585263 
N     0.0238372    0.8052541   -0.9838096 
H     0.7572569    0.7359157    0.9989691 
H    -0.0195855    0.1912143   -1.8312728 
H    -0.9442648    0.8328742   -0.5833993 
N     2.8332948    1.0153913   -1.5877275 
C     4.2322356    0.7624358   -1.9842265 
H     2.1207657    1.3675950   -2.2642042 
C     4.9612743    2.0838869   -2.1909787 
O     5.2327334    2.5394691   -3.4768670 
O     5.3530238    2.8683884   -1.1076018 
H     5.0084619    2.4954775   -0.2317440 
C     4.2653418   -0.1224109   -3.2505667 
H     4.8030055    0.2452538   -1.1769241 
C     3.7617440   -1.5204720   -2.9735610 
H     5.3123616   -0.1941702   -3.6246825 
H     3.6866588    0.3578849   -4.0695644 
C     2.5313087   -2.0034996   -3.2086753 
C     1.4445408   -1.3993361   -3.7551800 
C     0.2909039   -2.1182848   -3.8670177 
C     0.2405552   -3.4150828   -3.4368664 
C     1.3447220   -4.0026987   -2.8949792 
C     2.4750069   -3.2722708   -2.7978745 
H     1.4783671   -0.3697506   -4.0962929 
H    -0.5933192   -1.6584332   -4.3028553 
H    -0.6827958   -3.9819691   -3.5308596 
H     1.3214712   -5.0309848   -2.5495255 
N     3.7197201   -3.6878867   -2.2547426 
C     4.4957935   -2.4917529   -2.4021860 
H     3.9892626   -4.6130761   -1.8472133 
H     5.5326733   -2.3884519   -2.0885583 
