48
Energy =
C    -0.2370135   -0.1738544    3.3866657 
C     0.1930211    0.9964446    2.8424775 
C    -0.5276071   -1.2375608    2.5851001 
C    -0.3905112   -1.1203518    1.2446797 
C     0.0426434    0.0463285    0.7116742 
C     0.3472245    1.1036567    1.4948943 
H     0.4097520    1.8401968    3.4918630 
H    -0.6255817   -1.9647465    0.6085415 
H     0.2444199    0.2526880   -0.4273890 
H    -0.3509831   -0.2558539    4.4621304 
C     0.7792613    2.4040204    0.8341619 
C     1.8321706    2.2132327   -0.3031375 
H     1.2000213    3.0840802    1.6070550 
H    -0.1239915    2.9058922    0.4211970 
C     1.2732742    1.5350078   -1.5827040 
O    -0.9633142   -2.4573731    3.1127166 
H    -1.0590507   -2.4571208    4.1222598 
O     0.4244332    0.4315812   -1.4956710 
N     2.4442589    3.5200398   -0.6076349 
H     2.6226261    1.5184949    0.0693290 
H     1.6945298    4.2256879   -0.8113528 
H     2.9703095    3.8691001    0.2295328 
N     1.7135982    1.9112443   -2.8955666 
C     3.1698963    1.7088855   -3.1007902 
H     1.4511884    2.9163449   -3.0130239 
C     3.6584895    2.5331633   -4.2891520 
O     3.8617061    1.9357486   -5.5277124 
O     3.9040945    3.9008351   -4.1591039 
H     3.6755757    4.2491860   -3.2386476 
C     3.4760630    0.1974591   -3.2973942 
H     3.7639126    2.1050149   -2.2486743 
C     3.5905319   -0.5537408   -1.9852741 
H     4.4396805    0.0633504   -3.8402964 
H     2.6958390   -0.2401729   -3.9565254 
C     2.8211097   -1.5673595   -1.5471963 
C     1.7570671   -2.1784980   -2.1308356 
C     1.1518272   -3.2047244   -1.4667684 
C     1.6123730   -3.6028238   -0.2427613 
C     2.6791142   -2.9747504    0.3262445 
C     3.2615982   -1.9625846   -0.3502306 
H     1.3735105   -1.8566293   -3.0935365 
H     0.2935801   -3.7030873   -1.9114038 
H     1.1208876   -4.4182079    0.2833241 
H     3.0545528   -3.2772835    1.2980320 
N     4.3866643   -1.1977720    0.0579097 
C     4.5415312   -0.3186426   -1.0620933 
H     4.9427632   -1.2606035    0.9418649 
H     5.3329786    0.4223227   -1.1533189 
