48
Energy =
C     4.4201661    4.3973485    3.1122513 
C     4.3516577    3.2075249    2.4641455 
C     4.0208075    4.4935796    4.4085864 
C     3.5555636    3.3960178    5.0476442 
C     3.4847682    2.2029427    4.4044478 
C     3.8855730    2.1016527    3.1076059 
H     4.6750987    3.1467418    1.4265382 
H     3.2402807    3.4864317    6.0811669 
H     3.1049374    1.3337189    4.9346469 
H     4.7950918    5.2705690    2.5895249 
C     3.7953664    0.7814641    2.3761742 
C     2.5636970    0.7175381    1.4419210 
H     3.7743982   -0.0724443    3.0903195 
H     4.7286820    0.6475492    1.7817567 
C     2.6698114   -0.4657933    0.4974650 
O     4.0758999    5.7053560    5.1056440 
H     4.4432653    6.4764807    4.5587111 
O     2.7704652   -1.7581176    0.9992431 
N     1.3173895    0.6467261    2.2221597 
H     2.5388179    1.6311334    0.8012368 
H     1.3459120   -0.1837412    2.8619989 
H     1.2195180    1.5030976    2.8164174 
N     2.7924546   -0.2609744   -0.9137622 
C     4.1552934   -0.0460699   -1.4317050 
H     1.9259337   -0.2713156   -1.4969229 
C     4.6157745    1.3897020   -1.2023645 
O     5.8385870    1.6261031   -0.5892879 
O     3.8306338    2.4828699   -1.5707358 
H     2.9671089    2.1868860   -1.9998911 
C     4.1926638   -0.4407122   -2.9214053 
H     4.8662872   -0.7073095   -0.8796099 
C     5.6096444   -0.4839057   -3.4525103 
H     3.5696750    0.2506289   -3.5285280 
H     3.7412929   -1.4526049   -3.0350001 
C     6.2861425    0.5130549   -4.0468198 
C     5.8925635    1.7771679   -4.3496587 
C     6.7892901    2.6086089   -4.9535478 
C     8.0516270    2.1700952   -5.2435446 
C     8.4254795    0.8973314   -4.9294031 
C     7.5203555    0.0936618   -4.3324508 
H     4.8953217    2.1336349   -4.1127374 
H     6.5000892    3.6278846   -5.1981302 
H     8.7619300    2.8408248   -5.7203359 
H     9.4246836    0.5354387   -5.1461787 
N     7.7107266   -1.2506959   -3.9147971 
C     6.4280323   -1.5459880   -3.3478412 
H     8.5559638   -1.8598259   -4.0035425 
H     6.1665175   -2.4922736   -2.8793037 
