48
 energy: -9.073693570888 gnorm: 0.000745022629 xtb: 6.6.0 (2ccbbd7)
C           -4.34895877956326        1.42538363082515       -1.06572394509841
C           -3.11429237566768        1.88764073690579       -1.45598746196173
C           -4.87763846655920        0.25871326344222       -1.61883321294836
C           -4.12178267808122       -0.42103065394243       -2.57368697511040
C           -2.88757249503886        0.04666580088914       -2.95725810413184
C           -2.36721627155404        1.20913106343701       -2.40840391312111
H           -2.71367716574580        2.78618812369328       -1.01870280505333
H           -4.52861323837012       -1.32069634500766       -2.99950558661720
H           -2.30991331320467       -0.49101240712813       -3.68950465135355
H           -4.91968678227886        1.95944945756214       -0.32726495890980
C           -1.00133197308563        1.68420968194411       -2.79281196142290
C            0.12013628437488        0.94557616144321       -2.05748357851679
H           -0.90950232733317        2.75529366717186       -2.59292968547513
H           -0.86016505032891        1.57632975762087       -3.87324782526998
C            1.47242591929679        1.39400332493419       -2.56743457643692
O           -6.11390731063473       -0.23447601972077       -1.24640098620762
H           -6.51869877326885        0.35077100818245       -0.57005676343478
O            1.59401844925137        1.71428662956403       -3.73316330505775
N            0.02473033448901        1.12192258657511       -0.61361153264107
H            0.03445163820557       -0.13159172963098       -2.26620743005476
H            0.14204090650998        2.10103474361038       -0.38998956221075
H           -0.89145649167731        0.84598493222959       -0.28588797310474
N            2.51145267701042        1.42639560165943       -1.66765071970457
C            3.87233374562463        1.87288713211141       -2.00146757240067
H            2.33647427146608        1.21753275371926       -0.67783063074210
C            3.93172221623768        3.37248910857051       -2.05928310861591
O            4.98002888242285        4.01241745312806       -1.46359915074531
O            2.93154734605947        4.01267316299650       -2.74693792530400
H            2.37398740220428        3.31098825631996       -3.16443048403616
C            4.37733690494551        1.22976630760256       -3.30258929892644
H            4.53028232315679        1.54386248612865       -1.18318095114828
C            5.85465908261640        0.99185249046523       -3.37438568518844
H            4.05544946649042        1.83801426527750       -4.15390527179123
H            3.86472577579602        0.26940063662301       -3.42655742726325
C            6.92459607645955        1.73598309480939       -2.78252229439508
C            6.98440372359397        2.87910075877327       -1.97229701513252
C            8.19489278793732        3.35096063250808       -1.56180939397812
C            9.38652095844245        2.70989644901126       -1.93533332364471
C            9.36548259517842        1.59525330942994       -2.72724435121459
C            8.12732721224163        1.10123299672643       -3.15805701682205
H            5.95085649331996        3.47191457399162       -1.67697017059929
H            8.23578004710528        4.23395395931692       -0.94605983545155
H           10.32894331081435        3.10630546063892       -1.59568137433630
H           10.27100143839688        1.09706009189119       -3.02366083881306
N            7.79876827748237        0.02097535882919       -3.95431854681939
C            6.43419345437603       -0.03200316943352       -4.08327499044401
H            8.47445945460406       -0.61630069320247       -4.37991592445844
H            5.90105782588746       -0.77428790343705       -4.65494568579644
