48
Energy =
C    -2.4388461    3.4933909   -0.5212758 
C    -1.3450515    2.7645952   -0.1842759 
C    -3.6844993    3.0287028   -0.2351408 
C    -3.8262003    1.8357313    0.3863189 
C    -2.7358188    1.1019989    0.7251167 
C    -1.4871639    1.5651981    0.4442996 
H    -0.3541430    3.1462549   -0.4233530 
H    -4.8248548    1.4757275    0.6071600 
H    -2.8715534    0.1436832    1.2189464 
H    -2.3137173    4.4474038   -1.0217726 
C    -0.2659216    0.7482586    0.8015941 
C     0.3439006    0.0372664   -0.4307581 
H    -0.4968237    0.0012907    1.5930784 
H     0.4934355    1.4306116    1.2464958 
C     1.7060411   -0.5812591   -0.1226678 
O    -4.8330534    3.7542070   -0.5694060 
H    -4.6407278    4.6356356   -1.0326553 
O     2.1990328   -0.5736944    1.1809738 
N    -0.5765742   -0.9857254   -0.9513345 
H     0.5244241    0.8009100   -1.2231995 
H    -0.8601923   -1.6363160   -0.1809693 
H    -1.4440167   -0.5251793   -1.3145612 
N     2.6115844   -0.9280806   -1.1877943 
C     3.7254443    0.0417882   -1.2647139 
H     2.0761607   -0.9417407   -2.0888669 
C     3.2463794    1.4527038   -1.6177642 
O     2.9221329    1.7644333   -2.9321674 
O     3.0299561    2.4184551   -0.6340205 
H     3.1831581    2.0591010    0.2984293 
C     4.7616599   -0.4959022   -2.2748679 
H     4.2246570    0.1014953   -0.2683486 
C     6.0786129    0.2465987   -2.1842564 
H     4.3476245   -0.4599399   -3.3063297 
H     4.9460385   -1.5726548   -2.0592621 
C     6.5235536    1.2267966   -2.9895507 
C     5.9526602    1.7856239   -4.0881652 
C     6.6236326    2.7830105   -4.7322788 
C     7.8427985    3.2019551   -4.2772477 
C     8.3987653    2.6259769   -3.1742622 
C     7.7153194    1.6416711   -2.5533628 
H     4.9843663    1.4613246   -4.4556963 
H     6.1828796    3.2498185   -5.6102347 
H     8.3693071    3.9996600   -4.7955365 
H     9.3642870    2.9482583   -2.7991301 
N     8.1141895    0.9208721   -1.3961577 
C     6.9973291    0.0401814   -1.2232717 
H     8.9879812    1.0103215   -0.8279192 
H     6.9067153   -0.6859670   -0.4177888 
