48
Energy =
C     0.2294092   -1.6394802    2.9682593 
C     1.3805492   -0.9215710    2.9331656 
C    -0.9285192   -1.0550918    3.3752478 
C    -0.9263708    0.2443012    3.7467912 
C     0.2209101    0.9668344    3.7133653 
C     1.3852489    0.3895375    3.3021298 
H     2.2969633   -1.4087690    2.6120377 
H    -1.8560824    0.6982338    4.0712194 
H     0.1999104    2.0102491    4.0150564 
H     0.2392163   -2.6826208    2.6703288 
C     2.6672021    1.2011468    3.2546677 
C     2.9430515    1.8675687    1.8795564 
H     3.5286081    0.5519589    3.5323223 
H     2.6378671    1.9916399    4.0364501 
C     3.3110527    0.8666346    0.7838583 
O    -2.1320560   -1.7649910    3.4221385 
H    -2.0505444   -2.7325392    3.1281041 
O     3.9961960   -0.2942064    1.1335273 
N     1.8201769    2.7381250    1.4849200 
H     3.8535747    2.4990706    1.9999947 
H     0.9604467    2.1656968    1.3088265 
H     1.6058570    3.4144645    2.2558396 
N     3.3024259    1.2409409   -0.6083070 
C     4.6582400    1.5241727   -1.1445518 
H     2.5887720    1.9728904   -0.8172653 
C     5.1111505    2.9977454   -1.0982243 
O     6.3360957    3.3249513   -1.6642003 
O     4.3831294    4.0409989   -0.5253937 
H     3.5321719    3.7531401   -0.0831296 
C     4.6909372    0.9795781   -2.5912545 
H     5.4277304    0.9707612   -0.5529399 
C     6.0812820    0.5537780   -3.0156844 
H     4.2824898    1.7376203   -3.2961039 
H     4.0191116    0.0959744   -2.6748266 
C     6.6910140   -0.5992704   -2.7002136 
C     6.2433642   -1.6433424   -1.9562531 
C     7.0743904   -2.7084354   -1.7695740 
C     8.3267246   -2.7125175   -2.3194903 
C     8.7568173   -1.6492571   -3.0569920 
C     7.9151055   -0.6084888   -3.2294689 
H     5.2543495   -1.6344171   -1.5044857 
H     6.7409291   -3.5546611   -1.1736853 
H     8.9845840   -3.5633457   -2.1616789 
H     9.7503747   -1.6320808   -3.4916628 
N     8.1714193    0.5961550   -3.9373864 
C     6.9354643    1.2992785   -3.7389532 
H     9.0253202    0.8850235   -4.4674051 
H     6.7411858    2.3190777   -4.0704377 
