48
Energy =
C     0.5407989    4.0632786   -4.8887751 
C     0.3904138    3.5025324   -3.6612763 
C     0.0727590    3.4291849   -5.9873092 
C    -0.5516078    2.2355286   -5.8650032 
C    -0.6978949    1.6634428   -4.6438885 
C    -0.2354997    2.2984538   -3.5309469 
H     0.7811150    4.0246259   -2.7881798 
H    -0.9322875    1.7465348   -6.7537403 
H    -1.1929887    0.6998165   -4.5647294 
H     1.0429882    5.0199904   -4.9972801 
C    -0.4005082    1.6577047   -2.1699210 
C     0.8680563    0.8813523   -1.7440841 
H    -1.2727138    0.9677304   -2.1908529 
H    -0.6546448    2.4319564   -1.4099718 
C     2.0032772    1.8155438   -1.3482539 
O     0.2296628    4.0072116   -7.2432791 
H     1.0343009    3.6225028   -7.7226354 
O     1.7200298    2.8971094   -0.5196518 
N     0.5460296   -0.0362438   -0.6400605 
H     1.2256531    0.2798960   -2.6065621 
H     0.1455261    0.5073806    0.1632706 
H    -0.1796845   -0.7242830   -0.9499912 
N     3.3635458    1.3644836   -1.4289534 
C     4.3753267    2.1846124   -2.1325007 
H     3.5801280    0.4042510   -1.0823506 
C     3.9612385    3.6400613   -2.4093146 
O     3.5983449    4.0455935   -3.6866916 
O     3.9660578    4.5987841   -1.3981119 
H     4.0617947    4.1738577   -0.4859398 
C     4.9268140    1.4292371   -3.3706921 
H     5.2396043    2.2898316   -1.4404285 
C     3.8661150    0.9314849   -4.3352845 
H     5.5371265    0.5678327   -3.0239090 
H     5.6351273    2.0903633   -3.9195559 
C     3.2757209   -0.2763743   -4.3341794 
C     3.4383820   -1.3285689   -3.4898248 
C     2.6948563   -2.4519015   -3.7009270 
C     1.8162540   -2.5126528   -4.7462681 
C     1.6797645   -1.4512004   -5.5904158 
C     2.4242003   -0.3503476   -5.3592496 
H     4.1371074   -1.2893633   -2.6610627 
H     2.8029970   -3.3042590   -3.0339945 
H     1.2293436   -3.4137651   -4.9076120 
H     0.9947864   -1.4839797   -6.4301964 
N     2.4392008    0.8459890   -6.1209504 
C     3.3932031    1.6260260   -5.3869692 
H     1.9004563    1.0999390   -6.9803983 
H     3.7080673    2.6306836   -5.6662407 
