48
Energy =
C    -0.5727457    5.5669603   -0.8401504 
C    -1.1453876    4.3376584   -0.9000795 
C     0.3297800    5.9473127   -1.7833954 
C     0.6543037    5.0932358   -2.7779766 
C     0.0746804    3.8662703   -2.8504539 
C    -0.8262127    3.4796043   -1.9083857 
H    -1.8560372    4.0450154   -0.1326433 
H     1.4019365    5.4011439   -3.5003193 
H     0.3598443    3.1863449   -3.6507407 
H    -0.8355054    6.2426842   -0.0342671 
C    -1.4526197    2.1026918   -1.9707391 
C    -0.5428393    0.9778869   -1.4128929 
H    -1.7189204    1.8739480   -3.0282217 
H    -2.4153943    2.0983545   -1.4150347 
C     0.6673444    0.7103886   -2.2946658 
O     0.9326412    7.2095253   -1.7575106 
H     0.6759798    7.7664063   -0.9509400 
O     0.4452545    0.4889685   -3.6467609 
N    -0.1728913    1.2501320   -0.0111253 
H    -1.1158030    0.0220836   -1.4523470 
H     0.4619283    2.0869124    0.0316431 
H    -1.0258462    1.4926473    0.5453186 
N     1.8404911    0.1280612   -1.7197422 
C     3.1002258    0.9005973   -1.6723505 
H     1.7662032   -0.8501674   -1.3694290 
C     2.9560391    2.4006305   -1.9177251 
O     2.7616822    3.2552251   -0.8397553 
O     3.0544684    2.9418984   -3.1997328 
H     3.0618735    2.1269134   -4.0024116 
C     4.1478688    0.2587619   -2.6018473 
H     3.4961787    0.8273440   -0.6348210 
C     3.6752617    0.1126211   -4.0444146 
H     4.4299142   -0.7178444   -2.1640428 
H     5.0700016    0.8816134   -2.6022661 
C     3.8396481   -0.9760946   -4.8142954 
C     4.3286977   -2.2052369   -4.4831165 
C     4.4213572   -3.1575109   -5.4532868 
C     4.0387951   -2.8759728   -6.7313491 
C     3.5648455   -1.6400308   -7.0455068 
C     3.4769639   -0.7108418   -6.0683153 
H     4.6394569   -2.4517146   -3.4752007 
H     4.8028310   -4.1464133   -5.2092139 
H     4.1159551   -3.6386545   -7.5027264 
H     3.2651671   -1.3988342   -8.0603535 
N     3.0400177    0.6277539   -6.2435055 
C     3.0706438    1.2257566   -4.8990057 
H     2.7801837    1.0745359   -7.1552370 
H     2.7407066    2.2374697   -5.2218238 
