48
Energy =
C     2.0140328    2.7260828    1.6460309 
C     0.9741725    2.1003571    1.0382895 
C     2.5983486    3.8066844    1.0616995 
C     2.1321870    4.2581861   -0.1249792 
C     1.0893202    3.6402275   -0.7321207 
C     0.5089953    2.5497636   -0.1596416 
H     0.5190103    1.2362433    1.5157500 
H     2.6061457    5.1179009   -0.5866885 
H     0.7308381    4.0161408   -1.6874273 
H     2.3786309    2.3582148    2.5992498 
C    -0.6304448    1.8387376   -0.8598557 
C    -0.1808360    0.7065474   -1.8166017 
H    -1.2213744    2.5800802   -1.4449814 
H    -1.3372427    1.4259296   -0.1073932 
C     0.7879898    1.1737486   -2.8961925 
O     3.6770811    4.4673618    1.6584728 
H     3.9588259    4.0759762    2.5507031 
O     0.3225929    1.2435527   -4.2057269 
N     0.3226082   -0.4634921   -1.0741194 
H    -1.0889453    0.3853829   -2.3807250 
H     1.1312351   -0.1997792   -0.4671768 
H    -0.4306860   -0.8264160   -0.4439150 
N     2.1968614    1.3259045   -2.6216856 
C     3.1529802    1.5725667   -3.7229889 
H     2.5352739    1.2300328   -1.6405989 
C     2.9546059    2.9456351   -4.3735548 
O     2.0825921    3.8708091   -3.8109772 
O     3.7387487    3.3638773   -5.4520256 
H     4.4600521    2.7043270   -5.6921177 
C     3.1441367    0.3997936   -4.7371589 
H     4.1714910    1.6186007   -3.2794235 
C     3.3075878   -0.9354967   -4.0439924 
H     3.9602401    0.5161503   -5.4787038 
H     2.2021928    0.4069864   -5.3295322 
C     4.4606063   -1.4968854   -3.6488245 
C     5.7371658   -1.0547155   -3.7889057 
C     6.7465306   -1.8194142   -3.2822034 
C     6.4684107   -2.9986494   -2.6479362 
C     5.1786752   -3.4201356   -2.5154825 
C     4.1979034   -2.6477750   -3.0274876 
H     5.9613331   -0.1166999   -4.2878858 
H     7.7778871   -1.4890648   -3.3813553 
H     7.2784346   -3.6016392   -2.2452732 
H     4.9404394   -4.3503168   -2.0107259 
N     2.8000900   -2.8933383   -2.9819147 
C     2.2946990   -1.7312780   -3.6548375 
H     2.2780915   -3.7032725   -2.5753369 
H     1.2367212   -1.5055969   -3.7886278 
