48
Energy =
C    -3.7064084   -0.4407550    0.6510598 
C    -2.9641629   -0.1730666   -0.4530419 
C    -3.1013974   -0.8445362    1.8001357 
C    -1.7555639   -0.9740223    1.8371357 
C    -1.0083472   -0.7076014    0.7359769 
C    -1.6105727   -0.3153324   -0.4196410 
H    -3.4613854    0.1561797   -1.3614933 
H    -1.2846321   -1.2902844    2.7615849 
H     0.0731143   -0.8081480    0.7865692 
H    -4.7844371   -0.3282542    0.6132608 
C    -0.7729511    0.0091476   -1.6361268 
C    -0.2942527    1.5011691   -1.6163968 
H    -1.3714829   -0.1953417   -2.5519828 
H     0.0289954   -0.7400010   -1.7020821 
C     1.2123741    1.8067324   -1.6784399 
O    -3.8368731   -1.1297318    2.9549544 
H    -4.8372449   -1.0015346    2.8488952 
O     1.5565465    3.1463670   -1.5608542 
N    -0.9998699    2.2460245   -2.6722175 
H    -0.5798505    1.9613796   -0.6388280 
H    -0.7663067    1.8482103   -3.6126692 
H    -2.0351176    2.1719906   -2.5319461 
N     2.2479566    0.7888095   -1.6437503 
C     3.7063449    1.0671987   -1.5179777 
H     1.9857656   -0.2070156   -1.7538075 
C     4.1365464    2.5355739   -1.4069167 
O     4.6081558    3.0081829   -0.1866487 
O     4.1798507    3.3842299   -2.5150250 
H     3.6474611    3.0044084   -3.2825746 
C     4.4654240    0.3550714   -2.6670995 
H     4.0471182    0.6192985   -0.5568129 
C     4.4137633   -1.1532431   -2.5413191 
H     5.5363216    0.6642397   -2.6637468 
H     4.0567713    0.6745162   -3.6489433 
C     3.5729472   -1.9940082   -3.1680119 
C     2.5875929   -1.7359180   -4.0676721 
C     1.8559713   -2.7826407   -4.5462745 
C     2.1151898   -4.0569685   -4.1236063 
C     3.1073152   -4.2923388   -3.2187196 
C     3.8184838   -3.2407388   -2.7609920 
H     2.3743282   -0.7247957   -4.4005788 
H     1.0625365   -2.6029103   -5.2678889 
H     1.5276475   -4.8863211   -4.5097384 
H     3.3236673   -5.2966191   -2.8703754 
N     4.8737921   -3.2674016   -1.8105440 
C     5.1992678   -1.8741932   -1.7220443 
H     5.2946127   -4.0832807   -1.3091871 
H     5.9692807   -1.4624804   -1.0729867 
