48
Energy =
C     0.9395781   -2.2765052   -5.3090254 
C     0.6298487   -1.0883035   -4.7291852 
C     0.6840660   -3.4423033   -4.6562603 
C     0.1180420   -3.4097435   -3.4278512 
C    -0.1894781   -2.2239101   -2.8428510 
C     0.0640842   -1.0555976   -3.4924393 
H     0.8417806   -0.1570930   -5.2544822 
H    -0.0826008   -4.3453180   -2.9168147 
H    -0.6369110   -2.2176660   -1.8519489 
H     1.3942540   -2.2922312   -6.2941249 
C    -0.2437264    0.2668053   -2.8263588 
C     0.9336988    0.7558571   -1.9483492 
H    -1.1583848    0.1535585   -2.2041422 
H    -0.4892535    1.0429898   -3.5865181 
C     2.1536712    1.1692190   -2.7662771 
O     0.9978275   -4.6826614   -5.2210199 
H     1.4033715   -4.6220584   -6.1485115 
O     1.9729430    1.6101205   -4.0743362 
N     0.4951403    1.8755043   -1.1053307 
H     1.2563954   -0.0787839   -1.2862004 
H     0.2363759    2.6839491   -1.7213750 
H    -0.3541628    1.6064700   -0.5575716 
N     3.4088034    1.4289194   -2.1038738 
C     4.6117653    1.0595714   -2.8916433 
H     3.4227894    0.9208806   -1.1897467 
C     4.8621739    2.0178155   -4.0509065 
O     6.1688391    2.3836993   -4.3548497 
O     3.8344954    2.4533627   -4.8745618 
H     2.9071082    2.0318607   -4.4755678 
C     4.5876266   -0.4156889   -3.3721126 
H     5.4998032    1.2019930   -2.2360359 
C     4.6050897   -1.3913629   -2.2188970 
H     5.4757107   -0.6133841   -4.0137741 
H     3.7000380   -0.5955768   -4.0189623 
C     5.6541726   -1.6968077   -1.4397689 
C     6.9353759   -1.2492458   -1.4896691 
C     7.8232525   -1.7234321   -0.5692686 
C     7.4231539   -2.6291979    0.3741875 
C     6.1321760   -3.0674454    0.4018538 
C     5.2721276   -2.5825824   -0.5186063 
H     7.2576506   -0.5347119   -2.2425933 
H     8.8555625   -1.3801689   -0.5875131 
H     8.1377422   -3.0028066    1.1036163 
H     5.7987130   -3.7875364    1.1410445 
N     3.8968919   -2.9082792   -0.6677002 
C     3.5424670   -2.0933416   -1.7925869 
H     3.3041963   -3.5612261   -0.1056483 
H     2.5552788   -2.0601197   -2.2429742 
