48
Energy =
C    -2.3335269    3.4705970    2.5154204 
C    -1.2671816    3.4855528    1.6759829 
C    -2.2848932    2.7529424    3.6695226 
C    -1.1677057    2.0549420    3.9757430 
C    -0.0982955    2.0665830    3.1403208 
C    -0.1410832    2.7855809    1.9851632 
H    -1.3205158    4.0622490    0.7556361 
H    -1.1417485    1.4856497    4.8983715 
H     0.7877836    1.4945319    3.4020512 
H    -3.2253347    4.0330055    2.2608258 
C     1.0391481    2.7890111    1.0388716 
C     0.8307773    1.8293086   -0.1597734 
H     1.9768174    2.5239197    1.5758037 
H     1.1908742    3.8307564    0.6725115 
C     1.8982782    2.0441505   -1.2317095 
O    -3.3669264    2.7140068    4.5550410 
H    -4.1622010    3.2686043    4.2577660 
O     2.1605468    3.3513053   -1.6205297 
N     0.7862016    0.4310816    0.3105233 
H    -0.1296757    2.0800606   -0.6689286 
H     1.6170975    0.2261456    0.9156368 
H    -0.0705547    0.2805438    0.8950945 
N     2.4134082    0.9253346   -1.9907406 
C     3.3846712    1.0422275   -3.1125121 
H     1.9475357    0.0077615   -1.8160906 
C     3.6791672    2.4652328   -3.6070473 
O     2.9044082    3.0232273   -4.6207808 
O     4.7584427    3.1982762   -3.1067139 
H     5.1314429    2.7854057   -2.2649131 
C     2.9174120    0.1492646   -4.2897826 
H     4.3611914    0.6458276   -2.7576151 
C     2.9698680   -1.3273694   -3.9566994 
H     3.5702887    0.3212899   -5.1761187 
H     1.8952280    0.4536123   -4.6037177 
C     1.9403744   -2.1285528   -3.6321175 
C     0.6147414   -1.8498200   -3.5231855 
C    -0.2322758   -2.8565209   -3.1632566 
C     0.2508562   -4.1123195   -2.9203816 
C     1.5846417   -4.3691340   -3.0345615 
C     2.4027171   -3.3571704   -3.3920558 
H     0.2259910   -0.8533871   -3.7079016 
H    -1.2972782   -2.6588843   -3.0666997 
H    -0.4306437   -4.9091168   -2.6330271 
H     1.9846604   -5.3589833   -2.8427190 
N     3.8124625   -3.4115612   -3.5557849 
C     4.0997008   -2.0553784   -3.9187227 
H     4.4625006   -4.2225892   -3.4401989 
H     5.0961116   -1.6740885   -4.1307258 
