48
Energy =
C    -1.5109781    4.4589144   -5.9443257 
C    -0.4825016    3.6410370   -5.6063230 
C    -2.3871605    4.8833118   -4.9950824 
C    -2.2266436    4.4866651   -3.7121177 
C    -1.1994150    3.6691363   -3.3678859 
C    -0.3224725    3.2375647   -4.3154030 
H     0.2126237    3.3154277   -6.3762055 
H    -2.9315615    4.8342161   -2.9645814 
H    -1.0858974    3.3638314   -2.3305092 
H    -1.6294933    4.7737127   -6.9754547 
C     0.8320654    2.3404755   -3.9286173 
C     2.0002718    3.1398089   -3.3045561 
H     1.1930276    1.7682207   -4.8119554 
H     0.4659939    1.5803086   -3.2006332 
C     2.9880089    2.2234812   -2.6172753 
O    -3.4577281    5.7264648   -5.3095238 
H    -3.5089756    5.9802442   -6.2902153 
O     3.1782759    2.3320775   -1.2460117 
N     2.6754521    3.9627978   -4.3197129 
H     1.6131186    3.8011457   -2.4911371 
H     2.9849664    3.3678950   -5.1254044 
H     2.0160323    4.6840460   -4.6951951 
N     3.6884601    1.2032863   -3.3398395 
C     5.1601426    1.2313275   -3.2701397 
H     3.1589571    0.5029956   -3.9057763 
C     5.7443711    2.1247991   -4.3625638 
O     6.2287706    1.5642331   -5.5395997 
O     5.8037416    3.5093788   -4.2174472 
H     5.2730745    3.8192267   -3.4152575 
C     5.7046573   -0.2158693   -3.3616047 
H     5.5019018    1.6690391   -2.3039694 
C     5.1881172   -1.1584640   -2.2861424 
H     6.8159877   -0.1999109   -3.3052845 
H     5.4305604   -0.6251583   -4.3592965 
C     5.2024764   -2.5007117   -2.3548047 
C     5.6237116   -3.3154603   -3.3574767 
C     5.5393621   -4.6648873   -3.1762632 
C     5.0452235   -5.1752939   -2.0079220 
C     4.6342167   -4.3390912   -1.0129377 
C     4.7251075   -3.0082749   -1.2175061 
H     6.0233604   -2.9143421   -4.2839397 
H     5.8695105   -5.3380286   -3.9639459 
H     4.9832967   -6.2518415   -1.8697513 
H     4.2457387   -4.7265232   -0.0772370 
N     4.3724284   -1.9762906   -0.3106522 
C     4.7131257   -0.8109988   -1.0724363 
H     3.9755253   -2.0409926    0.6544122 
H     4.6011258    0.2037217   -0.7004417 
