48
 energy: -8.937026108824 gnorm: 0.000531271485 xtb: 6.6.0 (2ccbbd7)
C            7.00181960995733        1.76744261380677        2.34641752786521
C            5.68799070390810        2.23499908810391        2.28007321898152
C            7.58515149460994        1.04361867673464        1.27961962085632
C            6.85848434978961        0.84153520750541        0.13979989095414
C            5.49898279896789        1.40597601478192       -0.03032997989975
C            4.91673087412780        2.06991985760219        1.17211178358875
H            5.26177188290651        2.71713087523944        3.14303609951514
H            7.32044241648572        0.29986071153034       -0.66374158150401
H            5.23843302436711        1.81674684306908       -1.18689414405036
H            7.58005587811337        1.92420801215068        3.23858784436087
C            3.46113322446329        2.42514710024080        1.18774774785629
C            2.50144744306935        1.20570564814487        1.09110538296273
H            3.24842362324399        3.12813633063927        0.37617327076743
H            3.25274019537979        2.98506187516071        2.10603742126728
C            1.91646229979408        0.99241346878813       -0.29693461419745
O            8.86632144384931        0.53187088520089        1.37043549105509
H            9.26167236685645        0.76856668090444        2.23691593931883
O            0.72196219261698        1.17178657002167       -0.44857419740229
N            3.07532206791587       -0.02769663812973        1.61086908237168
H            1.62004116612257        1.41159122755240        1.72464315216852
H            3.76628140392989       -0.39755211309397        0.97289065931729
H            3.53245100250205        0.13608686936050        2.49937997418078
N            2.70147948625746        0.66128984043708       -1.39324805960374
C            4.05620357519172        1.26778418899530       -1.60514584795261
H            2.21567178628733        0.54049073977145       -2.27796656899703
C            3.75509225387100        2.74901583680382       -2.00663226389103
O            4.70817342565274        3.41502181579732       -2.34861216268707
O            2.48249676240274        3.22357634565643       -1.97440536863627
H            1.83317990862063        2.56875306803871       -1.61680681667237
C            4.63661217216986        0.51116486982256       -2.85053286997585
H            4.61208840175981        0.70089024635173       -0.54830706076410
C            6.11258643164979        0.62755427324090       -3.04564809012792
H            4.13062363724122        0.87619918855250       -3.74973439101275
H            4.37151315317782       -0.54749734396423       -2.77254272113826
C            7.05425540613129       -0.44391295375722       -3.09215695468996
C            6.92545170076059       -1.83819227576653       -2.97163373037555
C            8.05476918048221       -2.60745144881637       -3.02362118277762
C            9.32298153809112       -2.02831754764566       -3.19125238451353
C            9.47295888424308       -0.67414849090972       -3.30972911063635
C            8.32906206396130        0.13208651519899       -3.26190557805450
H            5.95442617537101       -2.27988807495506       -2.83697917523577
H            7.97300994275116       -3.67772976533589       -2.93187993750231
H           10.19249227722796       -2.66374792419167       -3.22380747562571
H           10.44038104365288       -0.22114623488524       -3.43186144087286
N            8.16237241559888        1.50406450952512       -3.32829019920471
C            6.82779651669718        1.78920760640733       -3.19085938896536
H            8.92099321704778        2.18321247883712       -3.40966451122163
H            6.40816426856159        2.78023473614434       -3.13248223088210
