48
Energy =
C    -4.0947399    1.1097768   -2.3818404 
C    -2.7744040    1.4160525   -2.4542526 
C    -4.4874770   -0.1445833   -2.0329569 
C    -3.5549091   -1.0844073   -1.7575501 
C    -2.2335192   -0.7837395   -1.8281653 
C    -1.8349095    0.4687815   -2.1816201 
H    -2.4767163    2.4241827   -2.7298689 
H    -3.8807908   -2.0804409   -1.4783934 
H    -1.4986645   -1.5516600   -1.5999561 
H    -4.8358090    1.8705655   -2.6022238 
C    -0.3620672    0.8077516   -2.2414924 
C     0.2294388    1.0703148   -0.8357289 
H    -0.1898716    1.6846066   -2.9036520 
H     0.1790322   -0.0420575   -2.7168039 
C     1.7457332    1.1563567   -0.8792103 
O    -5.8393451   -0.4927915   -1.9485742 
H    -6.4755415    0.2652166   -2.1702145 
O     2.4958235    0.1424910   -0.2855301 
N    -0.3527733    2.2828726   -0.2361007 
H     0.0052523    0.1966491   -0.1778956 
H    -0.3269577    3.0808129   -0.9127089 
H    -1.3569238    2.1066403    0.0034137 
N     2.4064868    2.1772835   -1.6530450 
C     3.8722401    2.0834964   -1.8076290 
H     1.8387186    2.9257092   -2.1086153 
C     4.4908863    3.4429853   -2.1154210 
O     5.4954488    3.9347612   -1.2919731 
O     4.0974132    4.2047007   -3.2187340 
H     3.3782891    3.7430533   -3.7530367 
C     4.2021816    1.0337601   -2.8935731 
H     4.3297216    1.7756366   -0.8354774 
C     5.6632603    0.6433315   -2.8580924 
H     3.9160508    1.4003977   -3.9019191 
H     3.5941992    0.1178988   -2.7185234 
C     6.6687184    1.1832672   -3.5663413 
C     6.6493065    2.1703020   -4.4987410 
C     7.8292857    2.5463077   -5.0699122 
C     8.9982950    1.9373300   -4.7059631 
C     8.9943662    0.9492868   -3.7667058 
C     7.8141666    0.5947068   -3.2162749 
H     5.7258777    2.6633418   -4.7846626 
H     7.8399058    3.3402866   -5.8127958 
H     9.9350989    2.2468929   -5.1623507 
H     9.9132432    0.4606458   -3.4613835 
N     7.5952776   -0.3928958   -2.2186461 
C     6.1768303   -0.2911552   -2.0386697 
H     8.2827109   -1.0251445   -1.7484073 
H     5.6025076   -0.8738381   -1.3202427 
