48
Energy =
C    -1.5580425   -1.6691816   -0.3021616 
C    -0.4132952   -1.0221132    0.0334721 
C    -1.5445781   -2.6248586   -1.2691302 
C    -0.3843275   -2.9250738   -1.8949696 
C     0.7629616   -2.2799855   -1.5644607 
C     0.7559727   -1.3222030   -0.5959658 
H    -0.4413519   -0.2572251    0.8046623 
H    -0.3877340   -3.6884568   -2.6649128 
H     1.6834576   -2.5373395   -2.0797239 
H    -2.4837487   -1.4178523    0.2036858 
C     2.0334087   -0.5919484   -0.2299871 
C     2.1171702    0.8265646   -0.8415972 
H     2.9174240   -1.1854872   -0.5488068 
H     2.1061365   -0.5228699    0.8776695 
C     1.9290889    0.8177518   -2.3617327 
O    -2.7050244   -3.3141884   -1.6368115 
H    -3.5347318   -3.0157955   -1.1357810 
O     0.9636427    1.6148680   -2.9655873 
N     1.1475050    1.7014098   -0.1604202 
H     3.1430297    1.2251766   -0.6634783 
H     1.4537705    1.8550609    0.8284857 
H     1.1515691    2.6466263   -0.6144934 
N     2.7526636    0.0038279   -3.2113478 
C     4.2213503    0.1464459   -3.1297358 
H     2.2679895   -0.7014358   -3.8110544 
C     4.6715249    1.6062139   -3.1973723 
O     5.5363521    2.0902930   -2.2236065 
O     4.2429225    2.4672130   -4.2060381 
H     3.5353105    2.0290278   -4.7794344 
C     4.8678044   -0.7042315   -4.2432598 
H     4.5688379   -0.2487395   -2.1490849 
C     6.3733164   -0.7760198   -4.0968995 
H     4.5925096   -0.3036733   -5.2432944 
H     4.4614330   -1.7392143   -4.1986169 
C     7.2850638    0.0305567   -4.6652030 
C     7.1178786    1.0745394   -5.5175243 
C     8.2248549    1.7453612   -5.9468229 
C     9.4692295    1.3669286   -5.5246789 
C     9.6136860    0.3155550   -4.6689531 
C     8.5030918   -0.3320968   -4.2580190 
H     6.1318638    1.3839693   -5.8500342 
H     8.1145286    2.5898432   -6.6230776 
H    10.3459453    1.9100770   -5.8684696 
H    10.5927497    0.0055951   -4.3201679 
N     8.4346089   -1.4362876   -3.3664752 
C     7.0192706   -1.6564121   -3.3119873 
H     9.2093835   -1.9480710   -2.8854904 
H     6.5392625   -2.4228024   -2.7083377 
