48
Energy =
C     2.9753388   -2.0933805    2.4653361 
C     2.5669183   -0.8024080    2.3604311 
C     2.0815595   -3.1065520    2.3143170 
C     0.7861250   -2.8213465    2.0531456 
C     0.3727644   -1.5331315    1.9485232 
C     1.2616098   -0.5132684    2.1034683 
H     3.2891878    0.0034797    2.4833330 
H     0.0833618   -3.6384236    1.9331929 
H    -0.6733053   -1.3250310    1.7401283 
H     4.0185167   -2.3143454    2.6652235 
C     0.8011752    0.9276894    1.9877738 
C     1.0057434    1.5420651    0.5786493 
H     1.3412748    1.5526411    2.7351386 
H    -0.2731048    1.0072962    2.2630755 
C     2.4725980    1.6792169    0.1916166 
O     2.4687039   -4.4466181    2.4179797 
H     3.4440977   -4.5738848    2.6638310 
O     3.4032160    1.9778030    1.1844234 
N     0.2310919    0.8037411   -0.4337672 
H     0.6297579    2.5901511    0.6127494 
H     0.5570950   -0.1896732   -0.4644501 
H    -0.7779947    0.7925499   -0.1567773 
N     2.8261064    1.9969546   -1.1604067 
C     4.1934996    1.6554776   -1.5945272 
H     2.1010039    2.3715591   -1.8135313 
C     4.9551939    2.9114870   -1.9984922 
O     5.5022572    3.0191344   -3.2731952 
O     5.1683140    3.9496389   -1.0938871 
H     4.6864644    3.7767688   -0.2193021 
C     4.1202834    0.6208470   -2.7374367 
H     4.7916780    1.2325253   -0.7538089 
C     3.4849396   -0.6717474   -2.2810520 
H     5.1402473    0.4102463   -3.1306349 
H     3.5443103    1.0538445   -3.5863018 
C     4.0693901   -1.6483199   -1.5709286 
C     5.3435316   -1.7476064   -1.1123233 
C     5.6939808   -2.8637531   -0.4109690 
C     4.7768272   -3.8521915   -0.1830693 
C     3.5024349   -3.7285367   -0.6511339 
C     3.1787086   -2.6133917   -1.3379132 
H     6.0747695   -0.9661664   -1.2980586 
H     6.7092524   -2.9703103   -0.0359505 
H     5.0623439   -4.7413176    0.3733022 
H     2.7615893   -4.5010820   -0.4710370 
N     1.9172972   -2.2888680   -1.9053159 
C     2.2029076   -1.0118807   -2.4949524 
H     1.0265860   -2.8367778   -1.8858785 
H     1.4724144   -0.3863137   -3.0066514 
