48
Energy =
C     5.7322914   -0.8120603    1.8535575 
C     4.4593694   -0.3963391    2.0718210 
C     5.9675568   -2.0203080    1.2756553 
C     4.9254907   -2.8091970    0.9284042 
C     3.6505917   -2.3991819    1.1462411 
C     3.4101846   -1.1896555    1.7232596 
H     4.2876972    0.5832859    2.5112163 
H     5.1246447   -3.7683349    0.4627056 
H     2.8239827   -3.0361535    0.8376815 
H     6.5603192   -0.1652910    2.1233690 
C     1.9910965   -0.7011030    1.9132112 
C     1.5447380    0.2036540    0.7434645 
H     1.9224285   -0.1379331    2.8698041 
H     1.2922738   -1.5634817    2.0065197 
C     1.5694891   -0.5432198   -0.5863372 
O     7.2664220   -2.4687521    1.0158847 
H     7.9889179   -1.8178934    1.3051686 
O     0.9192567   -1.7689455   -0.6908009 
N     0.2007094    0.7380528    1.0095106 
H     2.2531961    1.0587854    0.6647133 
H    -0.4831102   -0.0525048    1.0995243 
H     0.1983016    1.2667477    1.9133231 
N     2.0443199    0.0790825   -1.7903510 
C     3.5153294   -0.0393139   -1.9381026 
H     1.7173604    1.0739932   -1.7941176 
C     4.3049207    1.0664216   -1.2297139 
O     3.7217642    2.3061407   -0.9946879 
O     5.6440576    0.8884789   -0.8817048 
H     5.9663263   -0.0466740   -1.0890197 
C     3.8564607   -0.0987206   -3.4395701 
H     3.8588793   -1.0091737   -1.5076412 
C     3.4010182    1.1335280   -4.1937184 
H     3.3590282   -0.9936818   -3.8764640 
H     4.9480822   -0.2539781   -3.5810973 
C     4.0949681    2.2653494   -4.3979599 
C     5.3567292    2.5971532   -4.0202918 
C     5.8288190    3.8333586   -4.3508267 
C     5.0432313    4.7095447   -5.0472890 
C     3.7793805    4.3553984   -5.4155647 
C     3.3345790    3.1272078   -5.0764119 
H     5.9804601    1.9093366   -3.4571025 
H     6.8325205    4.1255260   -4.0509328 
H     5.4253934    5.6948145   -5.3025796 
H     3.1408363    5.0403903   -5.9629615 
N     2.0563762    2.5717798   -5.3527492 
C     2.1815817    1.2807151   -4.7410100 
H     1.2473123    2.9911311   -5.8663743 
H     1.3892067    0.5348654   -4.6994697 
