48
Energy =
C     1.5464551   -4.2206706   -1.1450154 
C     1.0236384   -3.1405114   -1.7800822 
C     1.2064695   -4.4856394    0.1445249 
C     0.3455597   -3.6667383    0.7902082 
C    -0.1790671   -2.5850928    0.1602524 
C     0.1542360   -2.3172254   -1.1322115 
H     1.3119000   -2.9333134   -2.8087447 
H     0.0837324   -3.8881906    1.8189626 
H    -0.8659553   -1.9365102    0.6976921 
H     2.2399006   -4.8689970   -1.6701025 
C    -0.4168453   -1.0976857   -1.8249395 
C     0.3643392    0.1885909   -1.4582353 
H    -1.4836142   -0.9902383   -1.5299580 
H    -0.4192941   -1.2339283   -2.9302329 
C     1.7495457    0.2601899   -2.0969371 
O     1.7281382   -5.5885057    0.8281387 
H     2.3610360   -6.1536400    0.2728223 
O     2.0829193   -0.6016236   -3.1405244 
N    -0.4284831    1.3734228   -1.8199288 
H     0.5321565    0.2009908   -0.3569919 
H    -0.6303877    1.3617021   -2.8490929 
H    -1.3457749    1.3594927   -1.3156433 
N     2.6768783    1.2742930   -1.6578681 
C     3.9636563    1.5390063   -2.3414712 
H     2.4547179    1.7788894   -0.7699672 
C     3.8070571    2.4582357   -3.5537602 
O     4.4256241    3.7030167   -3.5344284 
O     3.1082905    2.0892208   -4.7037267 
H     2.6492974    1.1993896   -4.5904496 
C     4.7550947    0.2394811   -2.6370388 
H     4.5780766    2.1337062   -1.6262510 
C     6.2403700    0.5027491   -2.7596405 
H     4.3902083   -0.2522025   -3.5640736 
H     4.5789133   -0.4911170   -1.8169464 
C     6.9156847    0.8425754   -3.8702264 
C     6.4761587    1.0049075   -5.1449887 
C     7.3789564    1.3668462   -6.1010054 
C     8.6929136    1.5576311   -5.7740263 
C     9.1119280    1.3888653   -4.4878294 
C     8.1996771    1.0308946   -3.5597689 
H     5.4333107    0.8613602   -5.4103968 
H     7.0490886    1.5107133   -7.1272599 
H     9.4048664    1.8503725   -6.5415732 
H    10.1493083    1.5413060   -4.2105235 
N     8.4245573    0.8163739   -2.1735139 
C     7.1032319    0.4852239   -1.7285064 
H     9.3153710    0.8805761   -1.6297992 
H     6.8392284    0.2683825   -0.6957352 
