48
 energy: -9.174494197965 gnorm: 0.000385068753 xtb: 6.6.0 (2ccbbd7)
C           -0.26339692710285        0.38426024781426        3.55427776460695
C           -0.60503453456214        1.13277102110970        2.45223502061561
C            0.99577070390676       -0.20853698237062        3.64831983689547
C            1.89201545275787       -0.01759100002359        2.59800874690458
C            1.54117713079180        0.73302443054807        1.50279065636692
C            0.28518996099762        1.31619734954247        1.40209614643084
H           -1.57660866288639        1.59351809704608        2.39902445244236
H            2.86489165704947       -0.47015885260569        2.66927229509149
H            2.24502121020424        0.86019212938356        0.70082878338800
H           -0.96463825465106        0.25156035204091        4.35862731929022
C           -0.11255883872101        2.18102870253871        0.23774195618434
C            0.55771070062914        1.83992315381865       -1.10486339837874
H            0.10890942377721        3.22378467574035        0.48890940746449
H           -1.19927705858542        2.12314356156980        0.11681119465516
C            2.01098210991759        2.18826395072223       -1.08077850434863
O            1.37054446588591       -0.96763943726886        4.74118370909762
H            0.64081896899402       -0.99299263256505        5.39760279058182
O            2.38893737001133        3.47331478451117       -0.66992234112361
N            0.34769095109818        0.44516437671080       -1.48238796231254
H            0.10998054201494        2.45928552498726       -1.90017222022168
H            0.75451516261951       -0.15834436602190       -0.78109425902380
H           -0.64179580740621        0.23476198650570       -1.50980298530884
N            2.94878677568293        1.23953425404537       -1.43768562298818
C            4.34213465298578        1.58680719945553       -1.72196024804090
H            2.62525238260441        0.50801308652332       -2.07402002269124
C            4.47625302275799        3.04243267545904       -2.11641748940022
O            5.18006419623450        3.34801870479536       -3.07681403407349
O            3.79722530897721        3.98205529386798       -1.31729020347905
H            3.48502365716082        3.52945559028421       -0.30469395426608
C            4.91728407970227        0.65537578608333       -2.80099478591338
H            4.90503704832133        1.45489163126516       -0.78604424990253
C            4.05763065036713        0.60768550227395       -4.01910918039709
H            5.03365324198469       -0.35728489710875       -2.40234555394951
H            5.91860313640029        0.99898519168539       -3.08071472718187
C            3.10756326279070       -0.40163602986984       -4.36095916793839
C            2.73819763378503       -1.61369602928453       -3.75168321274710
C            1.73137904410105       -2.34871928952439       -4.31405981074619
C            1.07138082508314       -1.91157835136396       -5.47433920610471
C            1.40981306911108       -0.73285872280034       -6.08061200181019
C            2.43657412356571        0.03706042426592       -5.51999018335418
H            3.24578016032876       -1.94880684478720       -2.86429069476385
H            1.43711308140955       -3.28067941217823       -3.86065146117904
H            0.28274035938836       -2.51574367739165       -5.89143796873273
H            0.90428815817270       -0.38634581310306       -6.96410315762471
N            2.95905586413563        1.27218215417631       -5.86370230041602
C            3.91485625209710        1.61471973713020       -4.94006458685035
H            2.61735560628807        1.85937259160146       -6.62674535224015
H            4.41569691844760        2.56812263100914       -4.88260101927677
