48
Energy =
C     0.1899448    4.6956782    2.2432335 
C    -0.3330183    3.7184807    1.4602799 
C     1.4844640    4.6232652    2.6531906 
C     2.2490113    3.5751016    2.2715494 
C     1.7320534    2.5960184    1.4872044 
C     0.4331989    2.6582255    1.0823587 
H    -1.3668973    3.7923200    1.1335767 
H     3.2817886    3.5329369    2.6004318 
H     2.3666586    1.7675993    1.1836569 
H    -0.4287710    5.5359967    2.5389125 
C    -0.1415134    1.5809248    0.1867047 
C    -0.2069043    2.0306509   -1.2908456 
H    -1.1658115    1.3232112    0.5356689 
H     0.4552595    0.6463364    0.2750469 
C     1.1428250    2.4995103   -1.8231317 
O     2.0527449    5.6085328    3.4666572 
H     1.4287109    6.3787092    3.6817718 
O     1.3012333    3.8535822   -2.0881112 
N    -0.7692113    0.9469441   -2.1160653 
H    -0.8778923    2.9202254   -1.3661411 
H    -0.2797925    0.0392973   -1.9340766 
H    -1.7778524    0.8073206   -1.8684525 
N     2.2704826    1.5963119   -1.8187876 
C     3.6790886    1.9993549   -2.0736391 
H     2.0361423    0.5883890   -1.7023597 
C     3.8913987    3.4377982   -2.5662039 
O     3.8996240    3.7127539   -3.9309882 
O     4.1544917    4.4771044   -1.6706684 
H     3.9070966    4.2254193   -0.7253825 
C     4.3254516    0.9926069   -3.0574540 
H     4.2331784    1.9324730   -1.1119150 
C     4.4208835   -0.4047159   -2.4822111 
H     5.3551291    1.3292184   -3.3178572 
H     3.7569512    0.9905318   -4.0135901 
C     3.5993519   -1.4413287   -2.7214147 
C     2.5055049   -1.5234181   -3.5238665 
C     1.8261373   -2.7048288   -3.5749327 
C     2.2433645   -3.7743457   -2.8322306 
C     3.3420407   -3.6685966   -2.0321791 
C     3.9983341   -2.4898451   -1.9991889 
H     2.1648773   -0.6750882   -4.1104747 
H     0.9478306   -2.7963031   -4.2099479 
H     1.6968142   -4.7129795   -2.8792084 
H     3.6842996   -4.5065688   -1.4343220 
N     5.1446678   -2.1675051   -1.2248876 
C     5.3500162   -0.7979327   -1.5937904 
H     5.6858448   -2.7670409   -0.5604112 
H     6.1463332   -0.1686434   -1.2024901 
