48
Energy =
C     1.3772779    1.2383409    2.6831222 
C     2.2487679    1.0804440    1.6550991 
C     0.4171938    2.1988753    2.6237563 
C     0.3372157    2.9963063    1.5351154 
C     1.2053067    2.8417677    0.5038810 
C     2.1642147    1.8744131    0.5518029 
H     3.0090773    0.3067298    1.7182766 
H    -0.4314781    3.7598065    1.5003122 
H     1.1243686    3.4928703   -0.3613995 
H     1.4508988    0.5918631    3.5505113 
C     3.1439720    1.7105117   -0.5974510 
C     2.6723327    0.8121185   -1.7721370 
H     4.1112337    1.3193944   -0.2131374 
H     3.3766664    2.7162253   -1.0082828 
C     2.6843809   -0.6779607   -1.4940067 
O    -0.4955683    2.3901142    3.6668483 
H    -0.3770944    1.7396879    4.4356963 
O     2.2118236   -1.1367160   -0.2660358 
N     1.3134127    1.1137590   -2.2088580 
H     3.3871730    0.9887639   -2.6094338 
H     0.6396671    0.9631082   -1.4143578 
H     1.2050725    2.1261377   -2.4554366 
N     3.2667893   -2.3620028   -3.0708243 
C     4.0745081   -2.1417011   -4.2763444 
H     3.1349641   -3.3646869   -2.7590788 
C     4.4264359   -0.6717086   -4.5117512 
O     5.4768932   -0.1271314   -3.7844831 
O     3.7412630    0.1636564   -5.3990956 
H     2.9917008   -0.2977212   -5.8838050 
C     3.2855014   -2.8502532   -5.3980832 
H     5.0565149   -2.6522673   -4.1526957 
C     1.7701359   -2.7079682   -5.2289654 
H     3.5208431   -3.9370016   -5.3598064 
H     3.6063059   -2.4852254   -6.3984869 
C     1.1147887   -1.9089399   -4.3449734 
C     1.6303535   -1.1757630   -3.2762859 
C     0.9570829    0.2535297   -3.3388069 
C    -0.5471928    0.1230817   -3.5006055 
C    -1.0123792   -0.8525458   -4.3071639 
C    -0.1551009   -1.7835204   -4.7702864 
H     4.0040723   -1.8813912   -1.6106551 
H     1.3416524    0.7453137   -4.2741659 
H    -1.2104376    0.9074125   -3.1438289 
H    -2.0472417   -0.8497761   -4.6336737 
N    -0.4106461   -2.6444039   -5.8739297 
C     0.8921923   -3.1715122   -6.1305074 
H    -1.3123859   -2.8253504   -6.3743506 
H     1.1521980   -3.7560880   -7.0110150 
