48
Energy =
C     1.9335051    0.0337927    3.2031895 
C     1.3520602   -0.4692086    2.0851500 
C     2.8035254   -0.7251394    3.9215487 
C     3.0827166   -1.9849228    3.5173478 
C     2.5049705   -2.4928395    2.4003759 
C     1.6369951   -1.7362691    1.6731535 
H     0.6611612    0.1522609    1.5184539 
H     3.7753228   -2.5826752    4.0989807 
H     2.7457461   -3.5068141    2.0923299 
H     1.7015195    1.0452365    3.5194480 
C     1.0030619   -2.2903623    0.4122003 
C     1.7871063   -1.9527395   -0.8794492 
H    -0.0328137   -1.8917388    0.3193808 
H     0.8915069   -3.3934597    0.4965819 
C     1.9731015   -0.4543662   -1.0709562 
O     3.4256729   -0.2345337    5.0739923 
H     3.1485807    0.7093421    5.3213329 
O     0.8599405    0.3376243   -1.3210652 
N     3.0590696   -2.6996032   -0.9382043 
H     1.1579461   -2.2653344   -1.7461429 
H     3.6448437   -2.4824522   -0.0976198 
H     2.8588515   -3.7279618   -0.9087750 
N     3.2197911    0.1800263   -0.7534242 
C     3.9773668    0.8048875   -1.8503713 
H     3.5414462    0.1872286    0.2391504 
C     3.2823875    2.0657190   -2.3719644 
O     2.7701719    2.1061326   -3.6652713 
O     3.1853072    3.2112027   -1.5813572 
H     3.4844328    3.0357732   -0.6340122 
C     4.2722988   -0.2463343   -2.9495234 
H     4.9490320    1.1523537   -1.4331383 
C     5.4163708    0.1806736   -3.8423960 
H     3.3575753   -0.4306603   -3.5579948 
H     4.5160721   -1.2264034   -2.4807821 
C     6.7262925    0.0500979   -3.5806337 
C     7.3478887   -0.4973242   -2.5044409 
C     8.7116630   -0.4993396   -2.4764069 
C     9.4248188    0.0415786   -3.5105897 
C     8.7782848    0.5886120   -4.5791891 
C     7.4288899    0.5763501   -4.5846421 
H     6.7839576   -0.9234130   -1.6799268 
H     9.2348923   -0.9315754   -1.6266398 
H    10.5116242    0.0379854   -3.4798726 
H     9.3283736    1.0259724   -5.4055282 
N     6.5685124    1.1008911   -5.5854384 
C     5.2811281    0.8098172   -5.0234862 
H     6.8088599    1.5681116   -6.4897637 
H     4.3309285    1.0867385   -5.4802088 
