48
Energy =
C     0.9550422    5.2142932   -4.0432681 
C     1.7503563    4.1892414   -3.6467532 
C    -0.1969566    5.4844342   -3.3733822 
C    -0.5452018    4.7249974   -2.3100254 
C     0.2462732    3.6981531   -1.9090946 
C     1.4021370    3.4250179   -2.5750043 
H     2.6673775    3.9891434   -4.1960455 
H    -1.4678187    4.9496611   -1.7858549 
H    -0.0553973    3.0956342   -1.0564708 
H     1.2439317    5.8157178   -4.8988704 
C     2.2806950    2.2716935   -2.1439605 
C     2.0772827    1.0097053   -3.0247425 
H     2.0997392    2.0142179   -1.0768642 
H     3.3446531    2.6085092   -2.1935156 
C     3.1048977   -0.0673586   -2.6879735 
O    -1.0401056    6.5327879   -3.7552689 
H    -0.7108121    7.0527530   -4.5619604 
O     2.7281274   -1.1568193   -1.9096560 
N     0.7028460    0.5000370   -2.8750535 
H     2.2494938    1.2500649   -4.1014927 
H     0.4938579    0.2981045   -1.8681329 
H     0.0078606    1.1979132   -3.2286771 
N     4.5098544    0.2015266   -2.8087332 
C     5.1042804    0.4994035   -4.1304326 
H     5.0768789    0.2090422   -1.9315261 
C     4.8668009    1.9542056   -4.5263293 
O     5.4108027    2.9452051   -3.7179586 
O     4.0625622    2.3566244   -5.5966217 
H     3.7198959    1.6004859   -6.1686008 
C     4.6992475   -0.5591735   -5.1871293 
H     6.2110187    0.4468050   -4.0262767 
C     5.1096143   -1.9567348   -4.7706706 
H     5.1960260   -0.3270765   -6.1560684 
H     3.6078472   -0.5151657   -5.3746662 
C     4.3032783   -2.9802895   -4.4389621 
C     2.9473567   -3.0559685   -4.4094398 
C     2.3699449   -4.2283971   -4.0243614 
C     3.1442587   -5.3036707   -3.6859602 
C     4.5032266   -5.2099813   -3.7323816 
C     5.0514749   -4.0363683   -4.1124287 
H     2.3158648   -2.2176564   -4.6827472 
H     1.2869195   -4.2995716   -3.9854077 
H     2.6746190   -6.2345415   -3.3780059 
H     5.1342917   -6.0522554   -3.4692847 
N     6.4350586   -3.7382798   -4.2304094 
C     6.3844772   -2.3728385   -4.6624932 
H     7.2634884   -4.3513858   -4.0526145 
H     7.2601164   -1.7621129   -4.8683470 
