48
 energy: -9.288255819808 gnorm: 0.000963190309 xtb: 6.6.0 (2ccbbd7)
C           -1.70693993283854        5.26569784069985        0.28803588237160
C           -1.72585354136840        4.35615658626485       -0.74290593299520
C           -0.51076367947419        5.86169414825176        0.68832123259721
C            0.65798964785729        5.51093684818752        0.01391324541765
C            0.62839231100761        4.60357659330084       -1.01743768808638
C           -0.56114483152060        4.01190212095819       -1.41571876701373
H           -2.65555854238492        3.90059157856851       -1.03804224787347
H            1.58291805397535        5.96084908630408        0.32836929638240
H            1.54518668520219        4.31586700734136       -1.50237971029828
H           -2.61651315882438        5.52441575328290        0.80001028519294
C           -0.59494662462951        3.00753414511788       -2.52858369218748
C            0.08158195340722        1.66804867295148       -2.18550217813535
H           -0.12156881815953        3.43832222386931       -3.41684134571207
H           -1.63843155815726        2.82743294024874       -2.80761818974454
C            1.58300449686703        1.78999516331859       -2.23389915999771
O           -0.45552556512500        6.77340318402534        1.72515912477865
H           -1.35296215191702        6.91590777808430        2.09664659119077
O            2.16997526749127        2.20817293260573       -1.25859425322724
N           -0.28929824002175        1.18018095382792       -0.86689088554771
H           -0.21689446069983        0.90328260617721       -2.92024314432643
H            0.27170728705136        1.68800112634086       -0.18991977859340
H           -1.26610489891622        1.36538229616490       -0.67400402115288
N            2.23679210784078        1.43926870303304       -3.38951260600058
C            3.66048205667856        1.68427855339073       -3.55501122696140
H            1.73129391408194        1.18937707932552       -4.24027454001136
C            3.85708972547565        2.68073625983452       -4.67938714098684
O            4.63647547770156        2.42977576801852       -5.57270967431409
O            3.10800212924024        3.80374804761475       -4.56321674375291
H            2.57122783287962        3.75061331482077       -3.73850687193632
C            4.43562347547717        0.38702774852942       -3.78169393629301
H            4.01749895042172        2.15313646600414       -2.62659889054302
C            4.48602991478280       -0.51078451941830       -2.58820370842823
H            5.45584510932323        0.63251239115225       -4.09447100469095
H            3.98509345083925       -0.14606534597436       -4.62373540535934
C            5.22860139045566       -1.72493295398016       -2.49840629506719
C            6.06054791172643       -2.40405443995276       -3.40495367985112
C            6.64440806955261       -3.57496666391703       -3.00708791601092
C            6.42502089183393       -4.09731672014363       -1.72191560327689
C            5.61903809420214       -3.45343071915665       -0.82337775546090
C            5.01109023118811       -2.25279322661052       -1.21100266485586
H            6.22570036251230       -1.99900753058817       -4.38758043263456
H            7.28558878787153       -4.10750588789910       -3.68980276670560
H            6.90130784195435       -5.02195123093708       -1.44065241265051
H            5.44570983791006       -3.84558237713343        0.16265760568490
N            4.16383583806228       -1.38581734757603       -0.54453591669259
C            3.85295805224342       -0.34447921522202       -1.38023235300187
H            3.83212740238799       -1.51441920778585        0.41324635330653
H            3.20383718719011        0.47474123234207       -1.11562138032483
