48
Energy =
C    -3.1507173    1.4369703   -0.7321381 
C    -1.9804771    2.0766252   -0.9856678 
C    -3.5227150    0.3676589   -1.4860120 
C    -2.7228407   -0.0512520   -2.4924418 
C    -1.5534077    0.5851160   -2.7511753 
C    -1.1752315    1.6549601   -1.9987318 
H    -1.6903416    2.9233627   -0.3689789 
H    -3.0300968   -0.9045406   -3.0864087 
H    -0.9193510    0.2287805   -3.5591243 
H    -3.7854188    1.7795357    0.0779468 
C     0.1532652    2.3299225   -2.2587739 
C     1.3274434    1.4879722   -1.7105734 
H     0.1800185    3.3538537   -1.8222287 
H     0.2711202    2.4672713   -3.3576886 
C     2.6604006    1.9487376   -2.2643544 
O    -4.7163528   -0.3203216   -1.2454985 
H    -5.2682650    0.0653761   -0.4869293 
O     3.0507852    3.2734619   -2.0990946 
N     1.3436410    1.5001292   -0.2384205 
H     1.2032546    0.4458713   -2.0688655 
H     1.3314215    2.4908099    0.1042389 
H     0.4819939    1.0281975    0.1232935 
N     3.6477459    0.9719849   -2.6342124 
C     4.4947208    0.5832182   -1.4752233 
H     4.2213137    1.4006318   -3.3994639 
C     5.9044568    1.1792443   -1.5497917 
O     6.9746194    0.3881208   -1.9526835 
O     6.1546262    2.5066450   -1.2094256 
H     5.3014458    3.0284938   -1.0655968 
C     4.5467933   -0.9604732   -1.4088528 
H     4.0822019    0.9519316   -0.5033444 
C     3.1988008   -1.5601989   -1.0729690 
H     5.2842169   -1.2826238   -0.6385554 
H     4.9230679   -1.3619442   -2.3755855 
C     2.2617642   -1.9846509   -1.9369718 
C     2.2715902   -2.0036199   -3.2950033 
C     1.1546457   -2.4391037   -3.9456779 
C     0.0545012   -2.8386567   -3.2385202 
C     0.0645441   -2.8051932   -1.8758584 
C     1.1844061   -2.3792480   -1.2547221 
H     3.1357908   -1.6656829   -3.8596111 
H     1.1380230   -2.4626977   -5.0330395 
H    -0.8334465   -3.1809628   -3.7646563 
H    -0.8042521   -3.1066124   -1.2997965 
N     1.3836245   -2.2270326    0.1431066 
C     2.7097200   -1.6829574    0.1738309 
H     0.7348628   -2.4473122    0.9335695 
H     3.2298003   -1.3831783    1.0811438 
