48
Energy =
C     2.3451134   -1.5551591    3.3674528 
C     1.7528811   -1.8805478    2.1905115 
C     2.3930390   -0.2580558    3.7730568 
C     1.8434502    0.7048420    2.9989119 
C     1.2495290    0.3850118    1.8215335 
C     1.2036151   -0.9116809    1.4073460 
H     1.7247887   -2.9212350    1.8776499 
H     1.8859201    1.7355461    3.3341173 
H     0.8168735    1.1749802    1.2104941 
H     2.7814874   -2.3350215    3.9821666 
C     0.5593597   -1.2680150    0.0824285 
C     1.5217599   -1.1627354   -1.1254984 
H    -0.3117055   -0.5960568   -0.0920174 
H     0.1375842   -2.2956891    0.1274677 
C     2.1260272    0.2270954   -1.2655515 
O     3.0026943    0.1117125    4.9761186 
H     3.3725625   -0.6693380    5.5065997 
O     1.2954007    1.2956696   -1.5771613 
N     2.5412494   -2.2295453   -1.0852720 
H     0.9145823   -1.2936417   -2.0522499 
H     3.0878714   -2.1731254   -0.1936737 
H     2.0666156   -3.1637226   -1.0939305 
N     3.4688939    0.4937994   -0.8380551 
C     4.4552183    0.8816917   -1.8599870 
H     3.6980913    0.4159576    0.1769542 
C     4.1745830    2.2804083   -2.4158975 
O     3.8051032    2.4503252   -3.7467851 
O     4.3257240    3.4142346   -1.6170987 
H     4.4808571    3.1709206   -0.6503472 
C     4.5419568   -0.2175636   -2.9483653 
H     5.4472071    0.9555205   -1.3605137 
C     5.8293387   -0.1262170   -3.7374912 
H     3.6654996   -0.1484581   -3.6324532 
H     4.4682609   -1.2237866   -2.4773734 
C     7.0270600   -0.6089233   -3.3715715 
C     7.3833461   -1.2986086   -2.2572890 
C     8.6873109   -1.6737982   -2.1176677 
C     9.6048021   -1.3556006   -3.0808011 
C     9.2238915   -0.6594223   -4.1895727 
C     7.9278914   -0.3017610   -4.3057872 
H     6.6578204   -1.5486441   -1.4889112 
H     8.9997075   -2.2271662   -1.2352123 
H    10.6427019   -1.6564036   -2.9611386 
H     9.9395208   -0.3947629   -4.9606295 
N     7.3302360    0.4319079   -5.3648116 
C     5.9701754    0.5082558   -4.9150769 
H     7.7636678    0.8094522   -6.2385657 
H     5.1734830    1.0320810   -5.4433428 
