48
Energy =
C     1.7601273    5.7995719   -0.9321641 
C     1.2261977    4.7344783   -1.5836474 
C     2.7207620    6.5546989   -1.5286990 
C     3.1507000    6.2301368   -2.7689523 
C     2.6147864    5.1723020   -3.4282265 
C     1.6411654    4.4204098   -2.8433432 
H     0.4731095    4.1270411   -1.0846922 
H     3.9369467    6.8219639   -3.2237272 
H     2.9877388    4.9214556   -4.4172714 
H     1.4214677    6.0436203    0.0691404 
C     1.0341512    3.2408806   -3.5804483 
C     1.9058998    1.9642343   -3.4960386 
H     0.8897101    3.5163017   -4.6480090 
H     0.0189517    3.0191307   -3.1805559 
C     2.1624893    1.5384547   -2.0580034 
O     3.2714488    7.6728297   -0.8936891 
H     2.9531573    7.8019200    0.0600627 
O     1.1308797    1.6172965   -1.1268121 
N     1.2702241    0.8754295   -4.2640942 
H     2.9116752    2.1719963   -3.9297273 
H     0.3321348    0.6477452   -3.8515285 
H     1.1204175    1.1696088   -5.2582034 
N     3.2838417    0.7009188   -1.7504885 
C     4.6267481    1.2940023   -1.5568960 
H     3.1186027   -0.3299817   -1.7347384 
C     4.6870528    2.7990210   -1.8460605 
O     4.9227453    3.2523627   -3.1405975 
O     4.3801008    3.7400893   -0.8692104 
H     4.1311057    3.3052040    0.0065154 
C     5.6369691    0.4997579   -2.4108504 
H     4.9060515    1.1673939   -0.4874053 
C     7.0650253    0.8608206   -2.0637686 
H     5.4493861    0.6969426   -3.4905610 
H     5.4903731   -0.5917904   -2.2640787 
C     7.8063804    0.3434904   -1.0718346 
C     7.4993831   -0.6230239   -0.1686134 
C     8.4395875   -0.9654028    0.7583767 
C     9.6565447   -0.3414937    0.7710610 
C     9.9403313    0.6297747   -0.1427557 
C     8.9950264    0.9485208   -1.0516252 
H     6.5314238   -1.1145857   -0.1732007 
H     8.2193062   -1.7361790    1.4926700 
H    10.3995046   -0.6177856    1.5146849 
H    10.8978021    1.1392522   -0.1426149 
N     9.0802634    1.9354615   -2.0694880 
C     7.7838228    1.8199997   -2.6729473 
H     9.8736131    2.5695853   -2.3169638 
H     7.4180007    2.4521636   -3.4810949 
