48
Energy =
C     0.5274978   -1.9141709    3.5318132 
C     0.1876119   -1.3849531    2.3293103 
C     1.5350722   -2.8232839    3.6180170 
C     2.1987451   -3.1932602    2.4991338 
C     1.8606816   -2.6693474    1.2942930 
C     0.8500424   -1.7623686    1.2008399 
H    -0.6171583   -0.6569933    2.2748242 
H     3.0092289   -3.9091253    2.5807015 
H     2.4179561   -2.9655377    0.4110144 
H    -0.0073458   -1.6081656    4.4242212 
C     0.4713747   -1.1691751   -0.1395667 
C     1.0344004    0.2587466   -0.3454289 
H    -0.6380936   -1.1469229   -0.2120579 
H     0.8118288   -1.8273783   -0.9670676 
C     2.5556861    0.2758715   -0.5083542 
O     1.9055047   -3.3927727    4.8408002 
H     1.3802445   -3.0452314    5.6354800 
O     3.3378290   -0.1695527    0.5526543 
N     0.3448146    0.8861460   -1.4886833 
H     0.8425268    0.8710149    0.5670191 
H     0.3722468    0.2488037   -2.3194540 
H    -0.6641812    1.0386064   -1.2500493 
N     3.1772452    1.1031136   -1.5073512 
C     4.5732123    0.7985014   -1.8850209 
H     2.6095091    1.8468106   -1.9717963 
C     5.3456254    2.0705989   -2.2052550 
O     6.5206651    2.3404020   -1.5157913 
O     4.9393567    2.9553415   -3.2062235 
H     4.1021985    2.6433539   -3.6726670 
C     4.6020533   -0.1835970   -3.0773664 
H     5.1261143    0.3550166   -1.0216760 
C     4.1023302   -1.5603581   -2.6944932 
H     5.6485687   -0.2900554   -3.4450664 
H     4.0184987    0.2296524   -3.9256208 
C     2.9366162   -2.1311675   -3.0420063 
C     1.9165978   -1.6490255   -3.7989247 
C     0.8217012   -2.4392174   -3.9918677 
C     0.7621556   -3.6855790   -3.4333688 
C     1.7979712   -4.1505802   -2.6793795 
C     2.8710100   -3.3514244   -2.5045503 
H     1.9548097   -0.6585743   -4.2401644 
H    -0.0079945   -2.0764379   -4.5943355 
H    -0.1137230   -4.3100856   -3.5930682 
H     1.7666354   -5.1372842   -2.2292800 
N     4.0391842   -3.6407403   -1.7510910 
C     4.7818188   -2.4265041   -1.9211709 
H     4.2877803   -4.5023879   -1.2125652 
H     5.7581469   -2.2363268   -1.4800606 
