48
Energy =
C    -0.3711676    5.9809370    1.6430693 
C    -0.5871800    4.6422466    1.5337753 
C     0.7896972    6.5296734    1.1851606 
C     1.7284367    5.7347387    0.6227139 
C     1.5062789    4.4036957    0.5220429 
C     0.3501007    3.8430850    0.9549654 
H    -1.5118309    4.2187392    1.9164751 
H     2.6500202    6.1721848    0.2545028 
H     2.2166634    3.6154893    0.0344289 
H    -1.1263585    6.6101700    2.1015340 
C     0.1601922    2.3237237    0.8845076 
C     0.7282576    1.6247094   -0.3978480 
H    -0.9264205    2.0963852    0.9489365 
H     0.6340399    1.8729781    1.7835147 
C     2.2640552    1.6514628   -0.4714641 
O     1.0398069    7.9022614    1.2818785 
H     0.2884801    8.4283530    1.7142797 
O     2.9057029    2.8927954   -0.4246076 
N     0.1982353    0.2532449   -0.4830114 
H     0.3953112    2.2005236   -1.2948988 
H     0.3379544   -0.2418499    0.4297554 
H    -0.8341291    0.2889406   -0.6562388 
N     3.0635387    0.4663797   -0.5529684 
C     4.4492040    0.6408637   -1.0302250 
H     2.6840596   -0.4566481   -0.2459358 
C     4.9759006    2.0630586   -0.8087717 
O     6.2961835    2.3581419   -1.1345412 
O     4.2526860    2.9534856   -0.3557360 
H     3.6123659    2.7329710    0.4197493 
C     4.5140146    0.2523309   -2.5214196 
H     5.1246708   -0.0200296   -0.4444236 
C     4.2712545   -1.2264995   -2.7239090 
H     5.5146567    0.5118986   -2.9370691 
H     3.7739903    0.8524542   -3.0953934 
C     3.0908269   -1.8348634   -2.9240887 
C     1.8427876   -1.3086947   -3.0179765 
C     0.7934700   -2.1579627   -3.2109729 
C     1.0043921   -3.5055184   -3.3088657 
C     2.2664351   -4.0119404   -3.2106837 
C     3.2879004   -3.1508964   -3.0185120 
H     1.6706880   -0.2402531   -2.9283677 
H    -0.2157639   -1.7598349   -3.2807441 
H     0.1625965   -4.1760220   -3.4613216 
H     2.4510536   -5.0784054   -3.2810316 
N     4.6643493   -3.4705428   -2.8724742 
C     5.2300852   -2.1678200   -2.6786322 
H     5.1342502   -4.4043687   -2.8966933 
H     6.2873669   -1.9754000   -2.5086622 
