48
 energy: -9.174687348967 gnorm: 0.000461629141 xtb: 6.6.0 (2ccbbd7)
C           -3.50199271634842        1.62880965281598        1.21912581863398
C           -2.12989662074516        1.53954745168412        1.23123135116653
C           -4.13663102567557        2.73859421242946        0.65997476022020
C           -3.34319311626316        3.74755421590464        0.11418115968729
C           -1.97187082646167        3.65090683879526        0.12970580520338
C           -1.34459307303416        2.54961762185993        0.69334862249723
H           -1.65112790401243        0.67681483204176        1.66183198220632
H           -3.83192539775458        4.60223626837811       -0.31818764888756
H           -1.37024223373829        4.43431993388899       -0.29828586414940
H           -4.10065205693534        0.84182128142843        1.64172293058861
C            0.14756378716108        2.43248710346395        0.67780270234179
C            0.70569266226301        1.98428346771104       -0.67731219242374
H            0.46941067309720        1.72138391287749        1.44424391624761
H            0.59674011439878        3.39065862303213        0.96020499151202
C            2.19707045763268        1.91405826283714       -0.63863534143344
O           -5.51359411125218        2.85889250500195        0.63375186436951
H           -5.92605381492772        2.07854237506915        1.06403404632858
O            2.91125486670015        2.89998789361566        0.05439017583917
N            0.14985501824055        0.70422253728640       -1.10277381819068
H            0.43186924320414        2.72952427751251       -1.44077671537793
H            0.43244519648379       -0.01258532658559       -0.44757769096447
H           -0.86106784503556        0.74002308212230       -1.08999265113041
N            2.83429241594966        0.88110688352231       -1.29438423955553
C            4.28065609338538        0.86433079337860       -1.51895475890779
H            2.31734480597734        0.43990291331170       -2.05784995941185
C            4.84909802079781        2.26618027661584       -1.53169391337551
O            5.67584871911464        2.57279429278144       -2.38756319736227
O            4.42277422694720        3.14068627530285       -0.51411367817714
H            3.96909028462973        2.56098882684449        0.37289116049276
C            4.64676803588523        0.08037904972842       -2.80125226659932
H            4.72875963097585        0.36021272090238       -0.64912821223531
C            3.65604771531038        0.24015461759475       -3.90806719466328
H            4.73577938823444       -0.98728033374481       -2.57228150236967
H            5.63514376985197        0.39968504379307       -3.14840552151051
C            3.40715791551858        1.40233283367398       -4.70022638551324
C            3.99238835686365        2.67911985239947       -4.74738730926472
C            3.51242820737700        3.59671676601707       -5.63896097036633
C            2.44575187037086        3.28388628903020       -6.49658379020037
C            1.84794214137033        2.05374767150522       -6.46132551373399
C            2.32770223299811        1.10062202990097       -5.55359184568930
H            4.78456955582873        2.92197075910745       -4.06338459021117
H            3.95375518858471        4.57886839129703       -5.67946837102737
H            2.09025206724016        4.02873317017805       -7.18927805461141
H            1.02577462292565        1.80729770547906       -7.10895974181293
N            1.92457112517505       -0.19239939664840       -5.27254478113631
C            2.72893069754060       -0.70203983753124       -4.28419835851666
H            1.14793908535645       -0.67187151186153       -5.73185501066691
H            2.62538411896010       -1.68503947894827       -3.85400902151753
