48
Energy =
C     0.3753273    5.0016757   -3.2898714 
C    -0.0588495    3.9730004   -2.5161570 
C     0.2274251    6.2850739   -2.8674684 
C    -0.3520315    6.5313398   -1.6713075 
C    -0.7827005    5.5079343   -0.8910303 
C    -0.6403795    4.2199977   -1.3100218 
H     0.0767857    2.9487198   -2.8638046 
H    -0.4619562    7.5598116   -1.3455629 
H    -1.2402107    5.7304185    0.0690010 
H     0.8509562    4.7949671   -4.2431225 
C    -1.1097682    3.0764819   -0.4331157 
C     0.0383123    2.3609419    0.3280496 
H    -1.6587242    2.3353663   -1.0588633 
H    -1.8573297    3.4411898    0.3056034 
C     0.9373502    1.5424397   -0.5879906 
O     0.6584246    7.3668657   -3.6419140 
H     1.1326887    7.0951177   -4.4963435 
O     0.3581388    0.8108159   -1.6196026 
N     0.8051355    3.3152906    1.1474094 
H    -0.4262220    1.6104551    1.0061712 
H     1.2894327    4.0070583    0.5246994 
H     0.1490000    3.8592179    1.7542419 
N     2.2673733    1.2002903   -0.1761438 
C     3.3885993    1.5157258   -1.0829124 
H     2.4176149    0.8195592    0.7838316 
C     3.3114935    2.9418159   -1.6314686 
O     2.9577057    3.1689778   -2.9579837 
O     3.5532097    4.0422198   -0.8076653 
H     3.8151877    3.7538514    0.1245993 
C     3.4778386    0.4502767   -2.1957338 
H     4.3344990    1.4688123   -0.4990907 
C     3.6966923   -0.9308235   -1.6217605 
H     4.3025510    0.6957909   -2.8993954 
H     2.5419007    0.4553993   -2.7987724 
C     4.8650552   -1.4694934   -1.2413455 
C     6.1204616   -0.9553903   -1.2985796 
C     7.1530516   -1.7148773   -0.8321147 
C     6.9175931   -2.9606796   -0.3190142 
C     5.6475255   -3.4543087   -0.2683421 
C     4.6431991   -2.6847375   -0.7379350 
H     6.3078278    0.0346798   -1.7028361 
H     8.1682559   -1.3274103   -0.8679213 
H     7.7456697   -3.5595380    0.0514202 
H     5.4426372   -4.4385316    0.1387006 
N     3.2582988   -3.0008761   -0.7642720 
C     2.7155079   -1.8066318   -1.3444226 
H     2.7660802   -3.8659250   -0.4444583 
H     1.6543636   -1.6239399   -1.5088389 
