48
 energy: -9.116167113431 gnorm: 0.000839480073 xtb: 6.6.0 (2ccbbd7)
C            0.07159958373312       -1.10345624264911        3.09472513175604
C           -0.31574699016315       -0.74053806771466        1.82612245710155
C            1.16765455972178       -0.49410751628227        3.70586508233013
C            1.84756805283232        0.49709392596768        2.99987548182815
C            1.44990921337070        0.85465980160475        1.73488018246720
C            0.37307283744897        0.23298600820480        1.11752092233891
H           -1.17486264394851       -1.20738840342373        1.37693154245938
H            2.68817250656676        0.97502341689782        3.47058688036513
H            1.98550456804962        1.61770843265387        1.19707145050628
H           -0.46993873464064       -1.86223807372981        3.63057051918196
C           -0.04434426655801        0.61424654220490       -0.27424143661165
C            0.32485823859106       -0.39721089084322       -1.38433897819686
H            0.39750991950900        1.58512625401827       -0.52684188707605
H           -1.12802138388821        0.77242801457091       -0.27016382619288
C            1.75282319784671       -0.28277392739990       -1.83384653320773
O            1.58746273623461       -0.84285728144898        4.97568829705987
H            0.99939682308207       -1.53718305455170        5.34446676158632
O            1.95902224546881       -0.07758913559403       -3.20449930747307
N            0.01510549771885       -1.77728459694091       -1.04071502662682
H           -0.27605603249526       -0.15720832731369       -2.27824065599181
H            0.61646489958334       -2.08273423536748       -0.28740125683975
H           -0.94400315469789       -1.86537792320916       -0.73018847039229
N            2.78643625865400       -0.38618249915831       -0.90116396058866
C            4.03461675405980        0.38387328443337       -1.01024116148714
H            2.48065287230088       -0.38402544606874        0.06645743227435
C            3.80689971291769        1.82719511379723       -0.59809809069810
O            2.67608705309854        2.26359063581259       -0.59140966682096
O            4.91187762402753        2.53871905731819       -0.25405830860830
H            5.72679481484768        1.99444096799361       -0.33171614268032
C            4.66324431786407        0.28130856239719       -2.39776937104617
H            4.73727798416362       -0.06472859854697       -0.29129418475131
C            4.73958692048182       -1.14210201574765       -2.82537954746387
H            5.65374007445465        0.74579491467640       -2.42267169276206
H            4.03741241425846        0.83662082518164       -3.10360241855652
C            3.66703592401548       -1.81412658481123       -3.39975250592742
C            2.36935914061203       -1.26317702263307       -3.91338317048990
C            1.32132952352558       -2.34219482247018       -3.98764453929217
C            1.62403814850016       -3.66082852779678       -3.90545091070649
C            2.92710413266654       -4.12139638762873       -3.63174935317797
C            3.92737381116999       -3.19231155131308       -3.33958518502566
H            2.55399330246702       -0.90886621043877       -4.94047631132082
H            0.30032694152344       -2.03107369391151       -4.11982421802665
H            0.83628210679031       -4.38768399295704       -4.01768957649125
H            3.13815672165356       -5.17180353988411       -3.54955387072340
N            5.19722580782928       -3.34317376204466       -2.78486470204936
C            5.67307380864504       -2.10827606475899       -2.45316501105421
H            5.61423340806053       -4.24541407318116       -2.54905256022448
H            6.58961713398792       -1.92194759669077       -1.91666400379753
