48
Energy =
C    -1.8782725    0.7396327    1.8365290 
C    -1.3290497    1.2311199    0.6969163 
C    -2.2851283   -0.5566987    1.8954555 
C    -2.1393464   -1.3526879    0.8119543 
C    -1.5905564   -0.8665887   -0.3300525 
C    -1.1844045    0.4308709   -0.3952417 
H    -1.0051087    2.2681200    0.6664369 
H    -2.4677175   -2.3844663    0.8717776 
H    -1.4804780   -1.5217757   -1.1900219 
H    -1.9900684    1.3857426    2.7005521 
C    -0.5545846    0.9671615   -1.6617134 
C     0.9237921    0.5345081   -1.8076308 
H    -0.6299564    2.0779387   -1.6987313 
H    -1.1406585    0.5968595   -2.5333718 
C     1.4609911    0.8905991   -3.1815692 
O    -2.8527741   -1.0953130    3.0547005 
H    -2.9344676   -0.4332643    3.8185344 
O     1.4188931    2.2085992   -3.6281033 
N     1.7547044    1.1414299   -0.7542329 
H     0.9888428   -0.5759335   -1.7294622 
H     1.6094643    2.1796959   -0.7438032 
H     1.4602592    0.7749217    0.1813780 
N     2.2320638   -0.0668319   -3.9180816 
C     3.6912577    0.1243936   -3.9266689 
H     1.7509805   -0.8277040   -4.4499278 
C     4.2479365   -0.0326804   -5.3424706 
O     4.7745914   -1.2521886   -5.7600214 
O     4.1920040    1.0177029   -6.2594872 
H     3.6750996    1.8046962   -5.8902478 
C     4.3105362   -0.8603080   -2.9138578 
H     3.9503439    1.1632810   -3.6109496 
C     5.7748881   -0.5672129   -2.6731520 
H     4.1770765   -1.9070383   -3.2693434 
H     3.7661347   -0.7898434   -1.9464511 
C     6.2787447    0.3814453   -1.8686688 
C     5.6391526    1.2751279   -1.0713678 
C     6.3921133    2.1535175   -0.3492006 
C     7.7568881    2.1272274   -0.4355309 
C     8.3768565    1.2223032   -1.2455665 
C     7.6098164    0.3624065   -1.9481867 
H     4.5552540    1.2997287   -1.0056014 
H     5.9040461    2.8795684    0.2962755 
H     8.3499148    2.8322827    0.1414020 
H     9.4577762    1.1910908   -1.3294929 
N     8.0500183   -0.6408956   -2.8524863 
C     6.7974940   -1.1923378   -3.2828402 
H     9.0239806   -0.9064139   -3.1252980 
H     6.6930205   -1.9865981   -4.0206980 
