48
Energy =
C    -3.2249366   -1.7832956   -3.2391023 
C    -1.8869707   -1.6964286   -3.0316710 
C    -4.0574239   -2.0960714   -2.2102077 
C    -3.5437661   -2.3193471   -0.9789376 
C    -2.2063365   -2.2336584   -0.7655078 
C    -1.3691312   -1.9251881   -1.7927130 
H    -1.2360349   -1.4401395   -3.8634109 
H    -4.2176160   -2.5663400   -0.1658806 
H    -1.8119163   -2.4131474    0.2315790 
H    -3.6274791   -1.6003368   -4.2292620 
C     0.1188999   -1.8097541   -1.5507225 
C     0.5090875   -0.4765288   -0.8659539 
H     0.6788094   -1.9225794   -2.5024529 
H     0.4435143   -2.6608074   -0.9093115 
C     2.0080281   -0.4042830   -0.6061265 
O    -5.4412354   -2.1922858   -2.3907142 
H    -5.7462709   -2.0144501   -3.3411032 
O     2.7015028   -1.5595238   -0.2556002 
N     0.0492180    0.6752974   -1.6639601 
H     0.0384234   -0.4363104    0.1434546 
H     0.2725297    0.5317355   -2.6750718 
H    -0.9917295    0.7582493   -1.5838051 
N     2.6605871    0.8664675   -0.4653328 
C     4.0986714    0.9518013   -0.8004971 
H     2.0957342    1.7034204   -0.1934319 
C     4.6080072    2.3833329   -0.7289405 
O     5.2871046    2.8369385    0.3968655 
O     4.4078093    3.2557456   -1.8125388 
H     3.7448348    2.7963186   -2.6202563 
C     4.3951153    0.3587426   -2.1981821 
H     4.6755821    0.3752413   -0.0435241 
C     3.4270228    0.8483102   -3.2675712 
H     4.3913122   -0.7441226   -2.1075746 
H     5.4248031    0.6380983   -2.5109579 
C     2.7932893    0.0736223   -4.1627651 
C     2.8140344   -1.2827394   -4.3011191 
C     2.0623304   -1.8526725   -5.2835183 
C     1.3110554   -1.0747286   -6.1135229 
C     1.3110248    0.2780555   -5.9679612 
C     2.0632224    0.8264298   -4.9881518 
H     3.3979572   -1.9227578   -3.6480131 
H     2.0609026   -2.9341250   -5.4063976 
H     0.7135096   -1.5363812   -6.8967722 
H     0.7199078    0.9083482   -6.6246628 
N     2.1613720    2.2189114   -4.7068689 
C     3.0214275    2.3024735   -3.5083528 
H     1.6999128    2.9733367   -5.2755535 
H     3.0797798    3.4196531   -3.3634470 
