48
Energy =
C    -0.7733735    3.0256347   -4.7664171 
C    -1.3491862    2.6188334   -3.6105491 
C     0.4237018    2.5165335   -5.1496649 
C     1.0491743    1.6156284   -4.3674212 
C     0.5197328    1.2285621   -3.1634164 
C    -0.7277588    1.7120615   -2.8090955 
H    -2.3184858    3.0241342   -3.3308963 
H     1.9804986    1.2043190   -4.7301495 
H     1.1157804    0.2285141   -2.5158045 
H    -1.2829534    3.7494441   -5.3929357 
C    -1.4213093    1.2855665   -1.5230584 
C    -0.5082407    0.5203326   -0.5419534 
H    -2.3036439    0.6585620   -1.7759560 
H    -1.7931396    2.2021693   -1.0104318 
C     0.8734088    1.1523908   -0.5189433 
O     1.0323690    2.8897204   -6.3521175 
H     0.5088369    3.5778580   -6.8831954 
O     1.1564250    2.1599419    0.3956140 
N    -1.1201167    0.4574801    0.7940565 
H    -0.3714889   -0.5208154   -0.9124517 
H    -1.1706005    1.4211547    1.2065593 
H    -2.1007856    0.0987777    0.7205562 
N     1.6788582    1.0704505   -1.7297862 
C     2.9597803    0.3301799   -1.4741204 
H     2.0463275    2.0764289   -1.8680276 
C     3.8782991    1.0298856   -0.4590450 
O     4.6303371    2.1272637   -0.8641690 
O     4.0009719    0.5807924    0.8555147 
H     3.2882539   -0.0884912    1.1034074 
C     3.7231855    0.0845774   -2.7981095 
H     2.7310086   -0.6751761   -1.0505065 
C     4.9283119   -0.8097789   -2.5995774 
H     4.0492027    1.0570674   -3.2359431 
H     3.0477329   -0.4052736   -3.5306775 
C     4.9306128   -2.1507126   -2.5524185 
C     3.9051096   -3.0284767   -2.6993359 
C     4.1736623   -4.3618461   -2.5959728 
C     5.4479409   -4.7925493   -2.3474522 
C     6.4614010   -3.8919518   -2.2017668 
C     6.1705558   -2.5787132   -2.3115826 
H     2.8938224   -2.6866485   -2.8989833 
H     3.3706842   -5.0856403   -2.7126286 
H     5.6544226   -5.8567733   -2.2650283 
H     7.4771648   -4.2154165   -2.0009889 
N     7.0683628   -1.4860326   -2.1818023 
C     6.1820298   -0.3762113   -2.3769717 
H     8.0980211   -1.4874416   -1.9986761 
H     6.4833737    0.6686555   -2.3187632 
