48
Energy =
C     1.4931120    2.4970011   -5.3059285 
C     1.0412483    3.0966458   -4.1751202 
C     0.9567622    1.3164822   -5.7135744 
C    -0.0311754    0.7445416   -4.9880460 
C    -0.4874878    1.3394193   -3.8566721 
C     0.0418208    2.5236041   -3.4469834 
H     1.5006659    4.0275737   -3.8400174 
H    -0.4483825   -0.1990155   -5.3227740 
H    -1.2741364    0.8584085   -3.2810763 
H     2.2927447    2.9571097   -5.8768011 
C    -0.4274247    3.1641653   -2.1577067 
C     0.3695314    2.6464523   -0.9378079 
H    -1.5105033    2.9580408   -2.0094870 
H    -0.3302914    4.2720576   -2.2232223 
C     1.8697292    2.8632764   -1.1186709 
O     1.4065272    0.6678994   -6.8675859 
H     2.1401944    1.1633144   -7.3625218 
O     2.3018396    4.1692452   -1.3245456 
N    -0.1140770    3.3011678    0.2874493 
H     0.1961139    1.5514497   -0.8334866 
H     0.0509710    4.3359978    0.2272868 
H    -1.1450386    3.1513688    0.3921534 
N     2.6940154    1.7453670   -1.5241494 
C     4.1555209    1.8332054   -1.7713530 
H     2.2129344    0.8342650   -1.6989382 
C     4.7826758    3.2301141   -1.6338684 
O     4.9480677    4.0366540   -2.7588388 
O     5.2321034    3.7046506   -0.4001337 
H     4.9167358    3.1203095    0.3589583 
C     4.4484622    1.1994168   -3.1521861 
H     4.6579455    1.2069744   -1.0017485 
C     5.9242922    0.9237734   -3.3449377 
H     4.0762806    1.8716216   -3.9569576 
H     3.8885153    0.2461055   -3.2683556 
C     6.6071172   -0.1375098   -2.8879685 
C     6.1724435   -1.2140239   -2.1836712 
C     7.0826537   -2.1654860   -1.8276304 
C     8.3983343   -2.0270028   -2.1745442 
C     8.8119069   -0.9356140   -2.8794490 
C     7.8919582   -0.0095550   -3.2219986 
H     5.1288836   -1.3233788   -1.9047113 
H     6.7609885   -3.0376784   -1.2638400 
H     9.1181431   -2.7885087   -1.8853943 
H     9.8522077   -0.8079338   -3.1586491 
N     8.1125721    1.1969931   -3.9380944 
C     6.7874307    1.7452260   -3.9685901 
H     8.9996449    1.5783795   -4.3393234 
H     6.5276293    2.7071279   -4.4081932 
