48
Energy =
C    -2.9814172    3.2925793    0.1325243 
C    -1.7164948    2.8564283   -0.0927688 
C    -3.4548015    3.3887078    1.4037757 
C    -2.6572932    3.0473216    2.4414958 
C    -1.3910679    2.6105887    2.2220707 
C    -0.9123180    2.5152799    0.9515571 
H    -1.3503270    2.7830862   -1.1149732 
H    -3.0475444    3.1279811    3.4499027 
H    -0.7669031    2.3371083    3.0683994 
H    -3.6122305    3.5631715   -0.7072438 
C     0.4909068    2.0143785    0.6943782 
C     0.5103526    0.5321927    0.2518695 
H     1.1356001    2.1516688    1.5911010 
H     0.9456450    2.6470999   -0.1012910 
C     1.8795798    0.1366777   -0.2673303 
O    -4.7541668    3.8325441    1.6713837 
H    -5.2838042    4.0739821    0.8408072 
O     3.0279190    0.4304107    0.4618747 
N     0.1058128   -0.3516530    1.3555292 
H    -0.1987056    0.3993180   -0.5992220 
H     0.7153835   -0.1760089    2.1899863 
H    -0.8819355   -0.1425036    1.6307700 
N     2.0083618   -0.5063762   -1.5392997 
C     2.7855294    0.2188153   -2.5599764 
H     1.5709023   -1.4448025   -1.6717507 
C     2.0769935    1.5045411   -2.9753396 
O     1.0799103    1.4646666   -3.9429984 
O     2.3728466    2.7279603   -2.3720886 
H     3.0494356    2.6356059   -1.6267358 
C     3.0363938   -0.7002762   -3.7759485 
H     3.7716292    0.5174566   -2.1344428 
C     3.9511693   -1.8535775   -3.4268551 
H     3.4911541   -0.1171642   -4.6078758 
H     2.0625743   -1.0800415   -4.1616140 
C     5.2869427   -1.8077600   -3.3040203 
C     6.1417263   -0.7669619   -3.4780261 
C     7.4744045   -0.9842957   -3.2849572 
C     7.9272903   -2.2236975   -2.9252510 
C     7.0499683   -3.2537562   -2.7569208 
C     5.7367321   -3.0138807   -2.9545928 
H     5.7843595    0.2179100   -3.7640257 
H     8.1803699   -0.1675155   -3.4164602 
H     8.9908975   -2.3883762   -2.7713244 
H     7.3923239   -4.2421758   -2.4697621 
N     4.6657200   -3.9385895   -2.8281214 
C     3.5435362   -3.1041886   -3.1468661 
H     4.6948011   -4.9531471   -2.5753131 
H     2.5083887   -3.4388479   -3.1488927 
