48
Energy =
C     7.2741777    1.1098577    5.3066915 
C     6.1290651    1.0270520    4.5833846 
C     8.3918788    1.6558746    4.7572416 
C     8.3555667    2.1148236    3.4855671 
C     7.2132896    2.0344935    2.7572067 
C     6.0902404    1.4933037    3.3046699 
H     5.2451353    0.5828738    5.0346495 
H     9.2543599    2.5457796    3.0581605 
H     7.2072972    2.4048304    1.7346589 
H     7.2939012    0.7362180    6.3247230 
C     4.8191673    1.3813342    2.4923730 
C     4.6258159   -0.0453999    1.9258425 
H     4.8256416    2.1266274    1.6659546 
H     3.9540207    1.6443612    3.1415986 
C     3.2359734   -0.2541328    1.3304675 
O     9.5882313    1.7555422    5.4751583 
H     9.5335134    1.3891103    6.4191664 
O     2.3773961   -1.1433393    1.9636015 
N     5.6885724   -0.3854597    0.9632580 
H     4.6691563   -0.7704488    2.7755255 
H     5.9805273    0.4512068    0.4076914 
H     6.5404208   -0.6903210    1.4908578 
N     2.6569164    0.6306103    0.3570366 
C     3.2654745    0.5033542   -0.9869064 
H     2.6793531    1.6056251    0.7285349 
C     4.2559390    1.6394050   -1.2879467 
O     3.9733640    2.9359390   -0.8686571 
O     5.4271955    1.4221772   -2.0170901 
H     5.5344758    0.4516778   -2.2789684 
C     2.1246579    0.4878257   -2.0317158 
H     3.8248635   -0.4580084   -1.0732610 
C     1.7058652   -0.9213790   -2.3998145 
H     2.4415769    1.0127112   -2.9614616 
H     1.2456961    1.0541867   -1.6537761 
C     0.9622351   -1.7722724   -1.6715967 
C     0.3884078   -1.6103751   -0.4525431 
C    -0.3137432   -2.6523859    0.0797700 
C    -0.4373232   -3.8259018   -0.6107220 
C     0.1451045   -3.9663462   -1.8348775 
C     0.8382175   -2.9229884   -2.3371967 
H     0.4996286   -0.6871783    0.1065329 
H    -0.7623994   -2.5531324    1.0665036 
H    -0.9926437   -4.6544457   -0.1774080 
H     0.0641500   -4.8933199   -2.3925866 
N     1.5282797   -2.8717022   -3.5774683 
C     2.0680595   -1.5449660   -3.5358652 
H     1.6132442   -3.6041921   -4.3196590 
H     2.6936715   -1.1133984   -4.3145399 
