48
Energy =
C    -1.9657271    5.0388011   -5.0628798 
C    -1.1710451    4.0642948   -4.5521464 
C    -1.8289639    5.4225231   -6.3603495 
C    -0.8960569    4.8277281   -7.1382359 
C    -0.0987147    3.8527566   -6.6329599 
C    -0.2347790    3.4621128   -5.3360787 
H    -1.2901391    3.7699491   -3.5121123 
H    -0.7950190    5.1438277   -8.1707904 
H     0.6486416    3.3916247   -7.2735874 
H    -2.7099269    5.5113789   -4.4309696 
C     0.6627480    2.3899197   -4.7605111 
C     1.8266858    2.9916384   -3.9388940 
H     1.0637151    1.7399207   -5.5696574 
H     0.0516384    1.7226530   -4.1099777 
C     2.5275039    1.9227440   -3.1311976 
O    -2.6308244    6.4242410   -6.9170714 
H    -3.3058662    6.8186794   -6.2712514 
O     2.4014284    1.9130536   -1.7478485 
N     2.7790162    3.6968579   -4.8131415 
H     1.4210123    3.7027067   -3.1784752 
H     3.0565793    3.0785885   -5.6129139 
H     2.3165130    4.5417949   -5.2247300 
N     3.3177921    0.9105074   -3.7635782 
C     4.7411019    0.8597671   -3.3933609 
H     2.8994319    0.2921392   -4.4942504 
C     5.6285120    1.1197545   -4.6090776 
O     6.1709777    0.0560929   -5.3234744 
O     5.8925330    2.4146731   -5.0511963 
H     5.3659469    3.0963667   -4.5235737 
C     5.0130736   -0.5033392   -2.7260831 
H     4.9824281    1.6595917   -2.6535278 
C     6.3828354   -0.5488862   -2.0878055 
H     4.9063675   -1.3220027   -3.4728179 
H     4.2398797   -0.6900133   -1.9475284 
C     6.7207517   -0.0567211   -0.8864898 
C     5.9525963    0.5617592    0.0470372 
C     6.5491434    0.9862382    1.1975766 
C     7.8887608    0.7919776    1.3939313 
C     8.6406778    0.1731183    0.4394202 
C     8.0269693   -0.2405158   -0.6891172 
H     4.8886529    0.7244282   -0.1103117 
H     5.9557321    1.4845964    1.9605750 
H     8.3567060    1.1359492    2.3128708 
H     9.7053715    0.0175518    0.5765014 
N     8.6246055   -0.8821078   -1.8073125 
C     7.4900315   -1.0385643   -2.6729214 
H     9.6207696   -1.1649227   -1.9548784 
H     7.5271810   -1.4577491   -3.6789879 
