48
Energy =
C     0.9439499   -3.1676356    0.4790708 
C     0.2627159   -2.0026790    0.3371915 
C     1.7613275   -3.6064694   -0.5148679 
C     1.8907763   -2.8760340   -1.6453934 
C     1.2124873   -1.7100289   -1.7924438 
C     0.3930310   -1.2650101   -0.8001919 
H    -0.3823694   -1.6610782    1.1422599 
H     2.5490000   -3.2354899   -2.4292745 
H     1.3392817   -1.1347728   -2.7053320 
H     0.8359261   -3.7454541    1.3906413 
C    -0.3454737    0.0492361   -0.9483503 
C     0.2353316    1.1561294   -0.0371923 
H    -1.4158496   -0.1099524   -0.6911076 
H    -0.3334350    0.3875164   -2.0075957 
C     1.7371807    1.3428276   -0.2088251 
O     2.4781564   -4.8014823   -0.4011288 
H     2.3396493   -5.2853121    0.4795807 
O     2.5813372    1.0110776    0.8495297 
N    -0.4945479    2.4155272   -0.2592133 
H     0.1023297    0.8545017    1.0289970 
H    -0.4771565    2.6871032   -1.2702594 
H    -1.4983830    2.2979344    0.0170499 
N     2.2994966    1.7003424   -1.4851303 
C     3.7688723    1.6460606   -1.6294921 
H     1.6562920    1.9308318   -2.2734673 
C     4.2461517    2.5173863   -2.7851757 
O     5.1764918    3.5194918   -2.5438849 
O     3.7831900    2.3330360   -4.0905091 
H     3.1431186    1.5578076   -4.1554215 
C     4.2165983    0.1736558   -1.7842472 
H     4.2456388    2.0871847   -0.7194085 
C     5.7121693    0.0292267   -1.6118248 
H     3.8902581   -0.2443955   -2.7592222 
H     3.7234322   -0.4453684   -1.0013269 
C     6.6492667    0.0419129   -2.5738263 
C     6.5176423    0.1543993   -3.9206881 
C     7.6468531    0.1483809   -4.6854232 
C     8.8771470    0.0305979   -4.1003368 
C     8.9856675   -0.0801946   -2.7459704 
C     7.8538821   -0.0717607   -2.0108084 
H     5.5446703    0.2564124   -4.3896100 
H     7.5674844    0.2450947   -5.7654883 
H     9.7724045    0.0314015   -4.7168635 
H     9.9538655   -0.1683483   -2.2652101 
N     7.7488418   -0.1626158   -0.5969161 
C     6.3284424   -0.0822590   -0.4218367 
H     8.5032129   -0.2644934    0.1198988 
H     5.8236368   -0.0908403    0.5429335 
