48
Energy =
C     1.1393935   -2.9325388    1.8673137 
C     1.3520265   -1.6434418    1.4994006 
C    -0.1056381   -3.4720473    1.7796800 
C    -1.1295409   -2.7171078    1.3217187 
C    -0.9221941   -1.4284012    0.9505767 
C     0.3217531   -0.8816164    1.0394555 
H     2.3542889   -1.2304718    1.5679362 
H    -2.1169216   -3.1597333    1.2538809 
H    -1.7578360   -0.8415238    0.5798915 
H     1.9684679   -3.5314179    2.2281675 
C     0.5585245    0.5532062    0.6129874 
C     1.1254077    0.6821791   -0.8233082 
H     1.2491053    1.0435612    1.3342695 
H    -0.3898671    1.1311607    0.6789800 
C     2.5435531    0.1379926   -0.9370466 
O    -0.3596391   -4.7962971    2.1529939 
H     0.4630846   -5.2976171    2.4691445 
O     2.8089016   -1.0481540   -1.6143855 
N     0.2151500    0.0730282   -1.8079179 
H     1.2104578    1.7673730   -1.0651196 
H     0.2195972   -0.9698963   -1.6948321 
H    -0.7634629    0.4057319   -1.6481429 
N     3.6427689    0.8885760   -0.4039730 
C     4.5751352    1.5494988   -1.3391427 
H     3.7577850    0.9524589    0.6319526 
C     3.9038002    2.6389853   -2.1796258 
O     4.2256453    3.9682190   -1.9361964 
O     2.9710099    2.3578336   -3.1809117 
H     2.7705958    1.3718665   -3.2597713 
C     5.3341913    0.4921580   -2.1745294 
H     5.3287758    2.0891031   -0.7201484 
C     6.5798760    1.0684594   -2.8122179 
H     4.6770673    0.0314876   -2.9427245 
H     5.6237354   -0.3502195   -1.5065743 
C     6.6949395    1.6024315   -4.0399197 
C     5.7704592    1.7366625   -5.0255929 
C     6.1483852    2.3316000   -6.1932590 
C     7.4304004    2.7773367   -6.3584599 
C     8.3424696    2.6314017   -5.3560356 
C     7.9443097    2.0397983   -4.2101667 
H     4.7507561    1.3888552   -4.9007884 
H     5.4236790    2.4563821   -6.9946332 
H     7.7222984    3.2537712   -7.2910774 
H     9.3622952    2.9831058   -5.4689104 
N     8.7291543    1.8019938   -3.0504363 
C     7.7681232    1.1760241   -2.1916575 
H     9.7362441    2.0227145   -2.8755992 
H     7.9737518    0.8517305   -1.1738082 
