48
Energy =
C     3.0333112    0.2214454    5.6731030 
C     3.0071350   -0.2318982    4.3941057 
C     4.0295583    1.0504532    6.0845354 
C     4.9945057    1.4194484    5.2121970 
C     4.9736338    0.9692701    3.9321573 
C     3.9771569    0.1412903    3.5138570 
H     2.2046115   -0.8958298    4.0834020 
H     5.7842405    2.0796578    5.5534985 
H     5.7603559    1.2748548    3.2472982 
H     2.2560024   -0.0814799    6.3662752 
C     3.9523549   -0.3546321    2.0835721 
C     3.5512334    0.7571919    1.0806667 
H     3.2642812   -1.2221854    1.9656521 
H     4.9660207   -0.7401418    1.8297694 
C     3.7653747    0.3254642   -0.3591646 
O     4.0856603    1.5358743    7.3951453 
H     3.3282603    1.2127067    7.9870302 
O     4.1928386   -0.9632246   -0.6722947 
N     2.1464118    1.1741670    1.2710778 
H     4.2348175    1.6281559    1.2234476 
H     1.6895785    0.6989710    2.0832211 
H     2.1126888    2.2013956    1.4749301 
N     3.6410818    1.2888503   -1.4074241 
C     4.8629458    1.6528475   -2.1445252 
H     2.7028693    1.7056405   -1.6080809 
C     4.9531870    3.1576256   -2.3758128 
O     3.7965259    3.9243051   -2.4463769 
O     6.1771017    3.7798273   -2.6202864 
H     6.9514347    3.1360769   -2.5552695 
C     4.9138705    0.8703711   -3.4716881 
H     5.7611662    1.3737628   -1.5471245 
C     3.6907928    1.1075868   -4.3356527 
H     5.0194739   -0.2128093   -3.2459964 
H     5.8259681    1.1543113   -4.0414425 
C     2.5870283    0.3442284   -4.4026654 
C     2.2828992   -0.8109841   -3.7556743 
C     1.0697298   -1.3871743   -3.9920468 
C     0.1861404   -0.8065157   -4.8590114 
C     0.5099333    0.3558595   -5.4932393 
C     1.7172912    0.9053435   -5.2450789 
H     2.9749693   -1.2704074   -3.0562711 
H     0.8032309   -2.3104018   -3.4830233 
H    -0.7804798   -1.2702334   -5.0389035 
H    -0.1823671    0.8345740   -6.1773968 
N     2.2346546    2.1144333   -5.7812199 
C     3.5130685    2.1773831   -5.1319773 
H     1.8032699    2.7730165   -6.4701180 
H     4.2135880    3.0085727   -5.2208629 
