48
Energy =
C    -0.5873288    4.7209196   -1.3278000 
C     0.2414741    4.4502278   -0.2875701 
C    -1.3052911    3.7223435   -1.9087420 
C    -1.1861636    2.4577704   -1.4448136 
C    -0.3575363    2.1812338   -0.4067940 
C     0.3636178    3.1771244    0.1786156 
H     0.8089973    5.2587117    0.1659239 
H    -1.7597041    1.6683774   -1.9182792 
H    -0.2674254    1.1550616   -0.0554241 
H    -0.6752073    5.7374751   -1.6948513 
C     1.3014243    2.8637929    1.3265954 
C     2.7249713    2.4501610    0.8764989 
H     0.8660981    2.0375614    1.9348467 
H     1.3660603    3.7343597    2.0154139 
C     2.7200785    1.2558414   -0.0745934 
O    -2.1717483    3.9673262   -2.9799542 
H    -2.1820111    4.9320156   -3.2926711 
O     2.3354656    0.0220281    0.4338228 
N     3.4744810    3.6071175    0.3563309 
H     3.2604932    2.0686013    1.7781133 
H     2.9577086    4.0500822   -0.4404730 
H     3.5527304    4.3379579    1.1028564 
N     2.8188791    1.4027568   -1.5031275 
C     4.2083035    1.6834256   -1.9506286 
H     2.1433302    2.1466690   -1.7929165 
C     4.2934468    2.9642755   -2.7821987 
O     3.5965626    3.0460801   -3.9806172 
O     5.0580170    4.0615634   -2.3830012 
H     5.4587991    3.9502867   -1.4633965 
C     4.7018594    0.4850655   -2.7872095 
H     4.9072772    1.8194157   -1.0916509 
C     4.8805472   -0.7558472   -1.9411843 
H     5.6730850    0.7309959   -3.2737346 
H     3.9846853    0.2880623   -3.6153944 
C     3.9705539   -1.7158496   -1.7071577 
C     2.6961876   -1.8401792   -2.1594268 
C     1.9716154   -2.9269003   -1.7663671 
C     2.5249749   -3.8628649   -0.9369770 
C     3.8056836   -3.7159603   -0.4932567 
C     4.5017744   -2.6318336   -0.8956148 
H     2.2490614   -1.0888918   -2.8027501 
H     0.9458902   -3.0431311   -2.1066407 
H     1.9389674   -4.7228701   -0.6235047 
H     4.2574382   -4.4453462    0.1700163 
N     5.8373586   -2.2915882   -0.5481278 
C     6.0010608   -1.0598018   -1.2623511 
H     6.5139411   -2.8076037    0.0597303 
H     6.9073130   -0.4587886   -1.2487451 
