48
 energy: -9.074485244351 gnorm: 0.000480402925 xtb: 6.6.0 (2ccbbd7)
C           -1.05118495028860        0.98372090806602       -1.18128318691747
C           -0.02072951277512        0.13251584635140       -0.86412765363493
C           -2.35604832059639        0.50287444563891       -1.29406201647584
C           -2.57794445647301       -0.85850501284525       -1.08538790443058
C           -1.53851463825659       -1.70315145006590       -0.77458113276732
C           -0.24390212207368       -1.21952776394711       -0.65220162366916
H            0.98615782218889        0.50715434873405       -0.81087773089504
H           -3.58254697334050       -1.23043191284811       -1.17958640802578
H           -1.72358662699154       -2.75312693060829       -0.62589646044173
H           -0.85454130030413        2.02560308318690       -1.36131806284723
C            0.89713896794254       -2.13664147974056       -0.33072195240951
C            1.76217766071389       -2.48959087884271       -1.54758185003399
H            0.51201970249110       -3.05466338552453        0.12416907203605
H            1.52521692619313       -1.67388477700684        0.43555896859670
C            2.39453701903899       -1.26317347083099       -2.16990585625820
O           -3.41853301562048        1.32986935242286       -1.60538600984805
H           -3.09961034721882        2.24741431002783       -1.74454883470880
O            2.13810727266162       -0.98878154565004       -3.32532309829435
N            2.78358528391504       -3.48087944730343       -1.23176982416020
H            1.11341165922776       -2.92648768055438       -2.32348268710618
H            3.44927848718782       -3.09317138716757       -0.57598986497104
H            2.37010154974030       -4.29771387825116       -0.79912670432310
N            3.22210776647918       -0.49864149400263       -1.37996778024916
C            4.02142935591905        0.62690975009294       -1.88878363232437
H            3.41713110524985       -0.77525727075769       -0.41661569220342
C            3.17811208343320        1.86392991421487       -2.00057626453755
O            3.68305644018262        3.04511123187504       -1.53926098566739
O            1.94989354499229        1.72997939071837       -2.59700110951948
H            1.89479910317749        0.80092143056212       -2.93236540630100
C            4.70539089852953        0.28140344450544       -3.22096495630430
H            4.80821235522154        0.82917450843099       -1.14639513348210
C            6.02851867336845        0.94329245918956       -3.45271938958902
H            4.02403532381946        0.50959145020866       -4.04686197234030
H            4.84762781072400       -0.80439642542112       -3.25844130948559
C            6.49649017281578        2.21825174535111       -3.00046826296182
C            5.93186647404762        3.24567969668391       -2.23020805633804
C            6.66238665944968        4.36488008857135       -1.96442145836930
C            7.97291859388239        4.50699906021527       -2.44722973143285
C            8.55285649798750        3.52622983729742       -3.20330333332811
C            7.81252077425319        2.37095025810871       -3.48573711208258
H            4.77059635577806        3.15253682088675       -1.84131494816752
H            6.22225724603669        5.15503173872324       -1.37920319862081
H            8.52557340834322        5.40387275764656       -2.22163893319386
H            9.55420913131127        3.62413651743371       -3.58251123357625
N            8.12399790076050        1.23828555534435       -4.21339175785846
C            7.04575948090150        0.39063548206609       -4.19173507908545
H            9.01301112780255        1.07732999446912       -4.69034210987795
H            7.00997142124339       -0.56937937390968       -4.68095046598378
