48
Energy =
C    -3.7189410    1.0852338   -0.3410453 
C    -2.8939717    1.2593991   -1.4042230 
C    -3.8648825   -0.1465479    0.2161239 
C    -3.1832778   -1.1965972   -0.2956301 
C    -2.3563333   -1.0281123   -1.3585116 
C    -2.2089296    0.2022008   -1.9216575 
H    -2.7841788    2.2509495   -1.8357346 
H    -3.3089285   -2.1737159    0.1577402 
H    -1.8166578   -1.8835651   -1.7557174 
H    -4.2601030    1.9340201    0.0626160 
C    -1.2729729    0.3933602   -3.0946772 
C     0.2085900    0.4742487   -2.6543526 
H    -1.5460053    1.3072069   -3.6706385 
H    -1.4085292   -0.4573646   -3.8003650 
C     1.1397440    0.4106274   -3.8507116 
O    -4.7050777   -0.3602711    1.3136438 
H    -5.1852241    0.4740217    1.6329880 
O     0.9214035    1.2390355   -4.9459744 
N     0.4582311    1.6965745   -1.8722744 
H     0.4553877   -0.4157028   -2.0301794 
H     0.1504136    2.5361133   -2.4205324 
H    -0.1036861    1.6749117   -0.9894281 
N     2.4082046   -0.2439181   -3.7250954 
C     3.5540963    0.6105294   -3.3606731 
H     2.4752215   -1.2744264   -3.8863294 
C     4.2259452    1.2199855   -4.5928193 
O     4.5889369    2.5620502   -4.5752402 
O     4.5680433    0.4488738   -5.7059964 
H     4.2000768   -0.4859664   -5.6232760 
C     4.5343954   -0.2252127   -2.5120628 
H     3.2024213    1.4723785   -2.7426865 
C     5.6175341    0.6344438   -1.8965813 
H     4.9820357   -1.0391162   -3.1228062 
H     3.9686653   -0.7236707   -1.6930499 
C     6.8310062    0.9021989   -2.4069365 
C     7.4095604    0.4705377   -3.5574002 
C     8.6675972    0.9059241   -3.8536277 
C     9.3221720    1.7560980   -3.0059034 
C     8.7214436    2.1775962   -1.8570184 
C     7.4764585    1.7326207   -1.5857253 
H     6.8908012   -0.1967137   -4.2384750 
H     9.1485131    0.5804540   -4.7729247 
H    10.3226968    2.1023801   -3.2522171 
H     9.2236868    2.8570834   -1.1770900 
N     6.6753863    2.0589752   -0.4586438 
C     5.4854312    1.3121266   -0.7426726 
H     6.8986150    2.6731688    0.3575500 
H     4.5946625    1.3138259   -0.1185564 
