48
Energy =
C     1.2237904   -2.6193416    1.6891555 
C     0.3823852   -1.7433767    1.0845170 
C     1.6031472   -3.7562232    1.0480071 
C     1.1282912   -4.0135044   -0.1914362 
C     0.2843526   -3.1425620   -0.7997494 
C    -0.0845898   -1.9926576   -0.1712415 
H     0.1028416   -0.8316506    1.6057826 
H     1.4364913   -4.9224491   -0.6945621 
H    -0.0767020   -3.3661597   -1.7979549 
H     1.6005906   -2.4030739    2.6826329 
C    -0.9737955   -0.9794667   -0.8722397 
C    -0.2770581   -0.1890890   -2.0271502 
H    -1.3596505   -0.2446370   -0.1312625 
H    -1.8782694   -1.5061114   -1.2472070 
C     1.2409248   -0.1086969   -1.9062844 
O     2.4804474   -4.6723214    1.6397967 
H     2.7500049   -4.4264356    2.5855989 
O     2.0135239   -1.1158472   -2.4824788 
N    -0.6873616   -0.7208750   -3.3376305 
H    -0.6105561    0.8739248   -1.9783939 
H    -0.3788961   -1.7165255   -3.4303666 
H    -1.7287807   -0.6891278   -3.4323274 
N     1.8045381    0.6818508   -0.8413420 
C     2.9772304    1.5059923   -1.2279899 
H     2.0655224    0.0170446   -0.0816557 
C     2.6508992    2.5719779   -2.2797682 
O     1.5448767    2.4423309   -3.1103788 
O     3.4737835    3.6882192   -2.4470982 
H     4.2299411    3.7139053   -1.7805467 
C     4.2198071    0.6598968   -1.6254468 
H     3.2565299    2.0886938   -0.3234699 
C     4.6485075   -0.2920340   -0.5252380 
H     5.0720700    1.3347835   -1.8558730 
H     4.0289857    0.1019153   -2.5688366 
C     5.2843247    0.0324163    0.6124733 
C     5.7398857    1.2376567    1.0423721 
C     6.3545569    1.3020413    2.2585645 
C     6.5024442    0.1742889    3.0183713 
C     6.0372388   -1.0248089    2.5661687 
C     5.4350285   -1.0629155    1.3596261 
H     5.6263392    2.1339413    0.4401729 
H     6.7296269    2.2551065    2.6259511 
H     6.9933765    0.2327726    3.9872269 
H     6.1450538   -1.9294175    3.1557390 
N     4.8767473   -2.1978037    0.7161481 
C     4.3936823   -1.6143222   -0.5002290 
H     4.8351099   -3.1984522    1.0238444 
H     3.8743706   -2.1727841   -1.2755387 
