48
Energy =
C     0.2251681   -1.2699362    3.8439485 
C     0.8304597   -0.2818976    3.1348751 
C    -1.1226942   -1.4321047    3.7758461 
C    -1.8567370   -0.6035430    2.9996717 
C    -1.2569031    0.3843751    2.2884836 
C     0.0936740    0.5510579    2.3492895 
H     1.9101589   -0.1605438    3.1990424 
H    -2.9315386   -0.7423595    2.9551486 
H    -1.8658709    1.0381320    1.6697002 
H     0.8209434   -1.9308873    4.4648480 
C     0.7634172    1.6499777    1.5449326 
C     1.2763034    1.1981119    0.1504075 
H     1.6118898    2.0798843    2.1248445 
H     0.0528812    2.4940551    1.4036831 
C     2.5299408    0.3341863    0.1978447 
O    -1.7764770   -2.4396859    4.4916214 
H    -1.1583376   -3.0186680    5.0494443 
O     3.2932270    0.2375318    1.3572383 
N     0.2065480    0.5536481   -0.6312179 
H     1.5942548    2.1163802   -0.3956604 
H    -0.0861167   -0.3408430   -0.1718725 
H    -0.6280430    1.1841095   -0.6689382 
N     3.0948270   -0.1542504   -1.0206582 
C     4.3451181    0.4876644   -1.4638611 
H     2.6341765   -0.9572404   -1.5038249 
C     4.0828339    1.8635338   -2.0638358 
O     4.9171153    2.9211719   -1.7261006 
O     3.0515829    2.0904498   -2.9771592 
H     2.4839497    1.2650469   -3.1041926 
C     5.0622466   -0.4513691   -2.4566402 
H     5.0092576    0.6595328   -0.5810440 
C     6.4633468    0.0268761   -2.7713893 
H     4.4669049   -0.5548268   -3.3899091 
H     5.1245129   -1.4691221   -2.0093891 
C     6.8392196    0.8330755   -3.7781625 
C     6.0995460    1.3998593   -4.7661609 
C     6.7321694    2.1976121   -5.6735035 
C     8.0791905    2.4146287   -5.5823133 
C     8.8016262    1.8366000   -4.5810926 
C     8.1529652    1.0513979   -3.6954351 
H     5.0278660    1.2406388   -4.8359624 
H     6.1592947    2.6699434   -6.4677928 
H     8.5744151    3.0564140   -6.3064295 
H     9.8692561    2.0040505   -4.4900165 
N     8.7129284    0.3714038   -2.5806183 
C     7.5494164   -0.2610018   -2.0322969 
H     9.7062479    0.3381615   -2.2558851 
H     7.5487725   -0.8721646   -1.1323654 
