48
 energy: -9.073321887101 gnorm: 0.000509449379 xtb: 6.6.0 (2ccbbd7)
C            3.20526340635540       -1.82476533692154       -6.47085891786275
C            2.44180778895213       -2.01614677950394       -5.27630021393255
C            3.65274667341405       -0.60466688981928       -6.85655494667752
C            3.39503061639739        0.59918416375450       -6.00907066644649
C            2.89956008338148        0.28761760309192       -4.60384219480275
C            2.23609156366217       -1.03779623290826       -4.38141366059913
H            1.96566766653548       -2.96977485749555       -5.12498323849132
H            2.73222955364015        1.29805932733402       -6.52325062998162
H            2.86860602160860        1.12190472869269       -3.70381197636176
H            3.40073073542464       -2.67030572657830       -7.10490061524226
C            1.22846127219344       -1.24883443997299       -3.28560743735437
C            1.70715887763689       -0.97595157167447       -1.85200493089505
H            0.86135922133734       -2.27858171124329       -3.34005650591321
H            0.35304163077704       -0.62095216560383       -3.48035239007743
C            1.61984052936486        0.49765178736961       -1.54715011633933
O            4.36214101750324       -0.41290417777841       -8.01102554474785
H            4.47199208517281       -1.26527913784254       -8.48531388730651
O            0.50602109272214        0.94757326186093       -1.37078815957021
N            0.88948538458945       -1.66515930425149       -0.86342011638787
H            2.73580911781850       -1.33527879328438       -1.72251908556599
H            0.02718107329326       -1.13840399203765       -0.75762471946085
H            0.66328091548057       -2.60934687772719       -1.15177452781313
N            2.74153238856311        1.29176491006787       -1.48233078133324
C            4.12293423132355        0.81513651678633       -1.58875457599587
H            2.64260201361918        2.22944493889620       -1.09991048458380
C            5.04268366640027        1.97686347453064       -1.26438174711432
O            5.93598786078522        1.79211794473617       -0.46660345294222
O            4.79277073577817        3.13165060862594       -1.92361326932797
H            4.01384601420042        3.02960046010579       -2.51859810509932
C            4.42877042070561        0.21403364480521       -2.98081266980667
H            4.28042849968047        0.06133430148928       -0.80442244836748
C            5.85221663133965        0.40494064231805       -3.40886856749593
H            3.65265659997669        0.76009574091244       -3.77568293085605
H            4.21446345555005       -0.85941357667298       -3.00294709102496
C            6.32995665340989        1.00315026961182       -4.61545920803191
C            5.69033964582158        1.45926394883131       -5.77603450354864
C            6.43623226335259        2.00926839075305       -6.77631240347138
C            7.83017976920509        2.13134101475715       -6.65535160189319
C            8.48385789771156        1.67683403460239       -5.54273115950558
C            7.73177482827287        1.09599820174703       -4.51316794665798
H            4.51924658023565        1.13411027392176       -5.92059401270043
H            5.94967945748060        2.32619481109484       -7.68365961185869
H            8.39285339614882        2.57513384523112       -7.45976557525161
H            9.55182552376158        1.75431961199015       -5.44482130438657
N            8.09478835520138        0.53622922509270       -3.30272547829276
C            6.96091123499099        0.12926673099630       -2.64588863896979
H            9.04491110813749        0.52345431456478       -2.92725586797583
H            6.94434011104250       -0.26686059022753       -1.64243139795765
