48
Energy =
C     0.8837971    5.5374483    0.2454973 
C     1.4933948    4.5907862    1.0032844 
C    -0.1349056    5.1952097   -0.5881503 
C    -0.5348178    3.9053479   -0.6590415 
C     0.0728104    2.9544599    0.0942369 
C     1.0935125    3.2912587    0.9307324 
H     2.3055479    4.8807362    1.6649823 
H    -1.3456126    3.6431842   -1.3301440 
H    -0.2576743    1.9204544    0.0156616 
H     1.2125933    6.5690880    0.3076768 
C     1.7823869    2.2259122    1.7595978 
C     2.9551678    1.5261984    1.0295072 
H     1.0346699    1.4533171    2.0524816 
H     2.1474474    2.6623336    2.7149696 
C     2.5292395    0.8838568   -0.2886396 
O    -0.7879109    6.1466194   -1.3791058 
H    -0.4075525    7.0832740   -1.2974472 
O     1.6385581   -0.1808860   -0.2406749 
N     4.1098902    2.4315858    0.8898875 
H     3.2688519    0.6598323    1.6587660 
H     3.8374716    3.3060929    0.3807296 
H     4.4404762    2.7269774    1.8387115 
N     2.7623337    1.5070550   -1.5626389 
C     4.1829469    1.4122135   -1.9949284 
H     2.4206800    2.4925076   -1.4906400 
C     4.8073220    2.7822084   -2.2667861 
O     4.0284398    3.8138886   -2.7761611 
O     6.1688405    3.0151307   -2.0700560 
H     6.6529537    2.2112125   -1.7003867 
C     4.2378285    0.5429461   -3.2669504 
H     4.8256184    0.9458343   -1.2087971 
C     4.1358749   -0.9286038   -2.9327131 
H     5.1723917    0.7322481   -3.8396393 
H     3.4030840    0.8311391   -3.9467956 
C     5.1536123   -1.7843872   -2.7428824 
C     6.4941370   -1.5788609   -2.8258558 
C     7.3277106   -2.6275408   -2.5687852 
C     6.8164136   -3.8501316   -2.2315595 
C     5.4679168   -4.0314232   -2.1480620 
C     4.6637858   -2.9802356   -2.4110635 
H     6.9060001   -0.6091404   -3.0868438 
H     8.4047138   -2.4902153   -2.6301661 
H     7.4873750   -4.6803117   -2.0255676 
H     5.0455955   -4.9923943   -1.8746142 
N     3.2452921   -2.9514268   -2.3583448 
C     2.9846220   -1.5821119   -2.6993517 
H     2.5711163   -3.7209180   -2.1411680 
H     1.9974905   -1.1183177   -2.6953434 
