48
Energy =
C    -2.1702894   -0.5573590    2.2858506 
C    -0.9167156   -0.4766178    1.7723504 
C    -3.0853777   -1.3934914    1.7266723 
C    -2.7387476   -2.1436702    0.6560600 
C    -1.4866132   -2.0669520    0.1382864 
C    -0.5660753   -1.2338999    0.6964951 
H    -0.1963364    0.1977459    2.2286128 
H    -3.4781644   -2.8054348    0.2185703 
H    -1.2294049   -2.6740448   -0.7255976 
H    -2.4390443    0.0491945    3.1438927 
C     0.8260843   -1.1297849    0.1143489 
C     1.0023782    0.1321524   -0.7665167 
H     1.0785897   -2.0376825   -0.4776120 
H     1.5616078   -1.1096517    0.9509978 
C     2.4561714    0.3657519   -1.1527588 
O    -4.3860519   -1.4994669    2.2300430 
H    -4.5661937   -0.9078533    3.0338519 
O     3.4544602   -0.5060603   -0.7196305 
N     0.1558151    0.0445116   -1.9695582 
H     0.7135749    1.0334413   -0.1766906 
H     0.3359582   -0.8584208   -2.4694630 
H    -0.8549409    0.0568992   -1.6946377 
N     2.8142732    1.5358001   -1.9055870 
C     4.2212098    1.9857576   -1.8505563 
H     2.0517592    2.0550277   -2.3956558 
C     4.3656633    3.5034065   -1.9026936 
O     5.2857691    4.1106148   -1.0595854 
O     3.6808128    4.3058403   -2.8174054 
H     3.0584707    3.7756342   -3.4059148 
C     5.0504912    1.2720019   -2.9433397 
H     4.6621773    1.7155473   -0.8600729 
C     4.5678288    1.5692390   -4.3470931 
H     5.0255492    0.1747092   -2.7608910 
H     6.1192987    1.5688007   -2.8473714 
C     3.6364256    0.8956870   -5.0421565 
C     2.9272599   -0.2124823   -4.7053187 
C     2.0184647   -0.6975729   -5.5987144 
C     1.8339258   -0.0762717   -6.8027197 
C     2.5576094    1.0345482   -7.1203703 
C     3.4512964    1.4948355   -6.2198723 
H     3.0692059   -0.7076245   -3.7496791 
H     1.4369003   -1.5818632   -5.3503429 
H     1.1061029   -0.4683954   -7.5086692 
H     2.4212788    1.5411324   -8.0697838 
N     4.2894445    2.6346523   -6.3486518 
C     4.9790731    2.6122723   -5.0904903 
H     4.3769365    3.3053998   -7.1468138 
H     5.6920075    3.3682072   -4.7583830 
