48
Energy =
C     1.4397170   -2.1328264    1.1954127 
C     1.1305273   -0.8211118    1.3524966 
C     0.5613323   -2.9738358    0.5882473 
C    -0.6267979   -2.4978259    0.1534171 
C    -0.9438836   -1.1890767    0.3142611 
C    -0.0591349   -0.3345442    0.8980562 
H     1.8444274   -0.1664887    1.8455950 
H    -1.3228260   -3.1763671   -0.3261777 
H    -1.9049372   -0.8330110   -0.0404253 
H     2.3914802   -2.5070224    1.5566561 
C    -0.4010548    1.1358215    1.0680574 
C    -0.5446419    1.9514475   -0.2569587 
H     0.3738789    1.6313516    1.6945638 
H    -1.3334757    1.2014140    1.6701625 
C     0.1737394    1.3509534   -1.4622848 
O     0.8558380   -4.3283210    0.3999390 
H     1.7504909   -4.6129629    0.7827164 
O    -0.4418885    0.3868920   -2.2554149 
N    -1.9616229    2.2152777   -0.5567515 
H    -0.0535825    2.9393676   -0.0979838 
H    -2.4600834    1.3110792   -0.7302363 
H    -2.4225736    2.6876236    0.2555164 
N     1.4577620    1.8429425   -1.8661803 
C     2.6351671    1.2050594   -1.2459240 
H     1.4870673    2.6058783   -2.5782775 
C     3.9140840    2.0240467   -1.3957170 
O     4.8058687    2.0585204   -0.3325775 
O     4.2872113    2.6406575   -2.5909650 
H     3.6023620    2.5189246   -3.3195052 
C     2.8092471   -0.2419390   -1.7621927 
H     2.4694260    1.1548816   -0.1475258 
C     3.1165059   -0.3108250   -3.2431294 
H     1.8791034   -0.8194081   -1.5620278 
H     3.6061583   -0.7522880   -1.1792567 
C     4.3319461   -0.3348777   -3.8167939 
C     5.5666632   -0.3111063   -3.2502850 
C     6.6563646   -0.3355499   -4.0698542 
C     6.4994188   -0.3830838   -5.4272314 
C     5.2511687   -0.4030223   -5.9742495 
C     4.1883938   -0.3776569   -5.1432175 
H     5.6994601   -0.2563045   -2.1734378 
H     7.6555544   -0.3072697   -3.6406585 
H     7.3741404   -0.3973551   -6.0733581 
H     5.1099908   -0.4338550   -7.0497746 
N     2.8155990   -0.3785366   -5.5081591 
C     2.1891461   -0.3297587   -4.2180441 
H     2.3795186   -0.4072954   -6.4596113 
H     1.1122450   -0.3061342   -4.0557937 
