48
Energy =
C    -0.0377435    5.8409756    0.8249281 
C    -0.4442913    4.7217929    0.1742512 
C     1.1337864    5.8428188    1.5153818 
C     1.8943180    4.7245947    1.5442532 
C     1.4906136    3.6013842    0.8986756 
C     0.3129454    3.5907282    0.2149268 
H    -1.3776736    4.7377618   -0.3820807 
H     2.8344728    4.7425170    2.0853400 
H     2.1229552    2.7178322    0.9244722 
H    -0.6500484    6.7354434    0.7894565 
C    -0.1266255    2.3500407   -0.5337942 
C     0.3331360    2.3807827   -2.0085054 
H    -1.2354827    2.2686768   -0.4965666 
H     0.2643229    1.4393060   -0.0284097 
C     1.8507524    2.4163039   -2.1392387 
O     1.5764362    6.9770094    2.2039381 
H     0.9709668    7.7845402    2.1061508 
O     2.4436946    3.6128252   -2.5181615 
N    -0.2475400    1.2389840   -2.7381584 
H    -0.0272765    3.3277864   -2.4792661 
H    -0.1428844    0.3499219   -2.1945470 
H    -1.2756534    1.3967765   -2.8656474 
N     2.6404537    1.3015202   -1.6703444 
C     4.1240157    1.2927477   -1.5643197 
H     2.1122059    0.4245633   -1.4782637 
C     4.8597573    2.5383660   -2.0727023 
O     5.5096628    3.3557460   -1.1535199 
O     5.0006153    2.8149681   -3.4337685 
H     4.3415500    2.2808659   -3.9793497 
C     4.6807380    0.0141266   -2.2393808 
H     4.3812748    1.2475894   -0.4822239 
C     4.2639823   -1.2483664   -1.5150058 
H     5.7946817    0.0506710   -2.2553568 
H     4.3611388   -0.0255198   -3.3022308 
C     3.2537404   -2.0748062   -1.8359775 
C     2.3698247   -2.0162872   -2.8666444 
C     1.4137516   -2.9845949   -2.9566981 
C     1.3545723   -3.9854534   -2.0269793 
C     2.2503087   -4.0231540   -0.9999962 
C     3.1875784   -3.0545027   -0.9326510 
H     2.4076816   -1.2190827   -3.6034209 
H     0.6946494   -2.9598840   -3.7723221 
H     0.5898822   -4.7541743   -2.1061607 
H     2.2149848   -4.8083036   -0.2522774 
N     4.1933786   -2.9013599    0.0586007 
C     4.8431653   -1.7054916   -0.3911339 
H     4.3982152   -3.4974960    0.8932727 
H     5.6839411   -1.2350670    0.1141802 
