48
Energy =
C    -2.4706745    3.2772157   -1.3449500 
C    -1.5322372    3.8167240   -2.1633083 
C    -2.6556368    1.9304855   -1.3118670 
C    -1.8962827    1.1321695   -2.0963074 
C    -0.9575545    1.6664870   -2.9177176 
C    -0.7740878    3.0147928   -2.9613996 
H    -1.3901405    4.8939211   -2.1743242 
H    -2.0462118    0.0587356   -2.0545209 
H    -0.3511339    1.0059854   -3.5312891 
H    -3.0709884    3.9248090   -0.7152557 
C     0.2893484    3.6148742   -3.8566402 
C     1.6122052    3.8553035   -3.0940539 
H    -0.0813088    4.5789623   -4.2693761 
H     0.4714977    2.9583485   -4.7364423 
C     2.2216648    2.5646207   -2.5836765 
O    -3.6173223    1.3430470   -0.4833975 
H    -4.1325686    2.0045315    0.0869116 
O     2.2791598    2.3230176   -1.2161702 
N     2.5604117    4.5829861   -3.9528408 
H     1.4087150    4.4631848   -2.1799226 
H     2.6809689    4.0728470   -4.8613901 
H     2.1721558    5.5281258   -4.1829119 
N     2.7839941    1.6018623   -3.4824347 
C     4.2149335    1.3013900   -3.3157471 
H     2.2044832    1.1916881   -4.2479331 
C     4.9954532    1.6539735   -4.5804992 
O     5.2793423    0.6741164   -5.5267564 
O     5.4119629    2.9591539   -4.8361038 
H     5.0632700    3.5990428   -4.1364757 
C     4.3480620   -0.1818553   -2.9169141 
H     4.6526634    1.9191743   -2.4959050 
C     5.7556737   -0.5175157   -2.4793424 
H     4.0402563   -0.8344323   -3.7645442 
H     3.6435921   -0.4012101   -2.0836064 
C     6.2892905   -0.2976179   -1.2683715 
C     5.7260390    0.2360868   -0.1539295 
C     6.4983529    0.3655173    0.9625359 
C     7.8070171   -0.0319257    0.9476181 
C     8.3520749   -0.5599640   -0.1852902 
C     7.5668590   -0.6806189   -1.2762625 
H     4.6878222    0.5602942   -0.1419931 
H     6.0707066    0.7901521    1.8676990 
H     8.4161366    0.0772943    1.8412689 
H     9.3899726   -0.8735421   -0.2157875 
N     7.9394487   -1.1814845   -2.5528090 
C     6.7086444   -1.0317836   -3.2764227 
H     8.8607912   -1.5587833   -2.8733566 
H     6.5755656   -1.2635826   -4.3336043 
