48
 energy: -9.290108535760 gnorm: 0.000468555392 xtb: 6.6.0 (2ccbbd7)
C           -0.73222029181053       -1.63526175923119        3.61925728950723
C           -0.85156925818937       -0.60769560674660        2.71342923297575
C            0.49319910792818       -1.90758430092635        4.22784013400494
C            1.58791198566281       -1.11363565923318        3.88885523420464
C            1.45778829944547       -0.08701758256366        2.98496487139758
C            0.23812657441675        0.18683337531981        2.38498095597707
H           -1.80303855243260       -0.40960981261257        2.25054147017670
H            2.53691243695292       -1.32968466153910        4.34616824445443
H            2.31812182359101        0.49698146054244        2.70526210455512
H           -1.58512296621543       -2.24082661703916        3.86823172183950
C            0.09581424114663        1.30191229943427        1.39292868813810
C            0.70142707940364        1.00634324836657        0.00769080530931
H            0.55514606893598        2.20772462130409        1.80168772496548
H           -0.96880177212958        1.53460839442859        1.28314859367998
C            2.19723098415340        1.20959082680994       -0.01067789150011
O            0.64662826645866       -2.93180127682509        5.14273515770234
H           -0.20793798207961       -3.39713161842403        5.27237651224101
O            2.90173443126012        0.49241215490662        0.66724426633403
N            0.42060085548689       -0.34550596188958       -0.45133472475805
H            0.26900774536208        1.70176177849475       -0.72957224085258
H            0.95883144227447       -0.98429946380050        0.11771846620019
H           -0.55776532584553       -0.56663291523382       -0.31735395882832
N            2.72154310486357        2.17834155227521       -0.84258419051973
C            4.12639240884530        2.08387872202752       -1.19810605745619
H            2.14830428128408        2.55669740427712       -1.59797799548029
C            4.60524240086903        3.32736893880092       -1.92318801850303
O            5.53294840456760        3.22082794676073       -2.69608035416756
O            3.96552176883305        4.48402972066645       -1.62503025283324
H            3.28069480706687        4.33023770579306       -0.93330438513300
C            4.36266938710743        0.81229536019966       -2.01870025436135
H            4.68348193475188        2.01672617118257       -0.25155581644077
C            3.46463710077135        0.71301388473822       -3.20656747518043
H            4.19541912720653       -0.06249069520433       -1.38046672666521
H            5.40758346470126        0.77199039790313       -2.34198094588295
C            3.75236416373430        1.14837096868644       -4.53501387398367
C            4.86410184232850        1.78211222728004       -5.11611618217045
C            4.82414278395378        2.09082868722176       -6.44727440818810
C            3.69665557358654        1.79017992678119       -7.22853458444992
C            2.59553680905289        1.19033398672441       -6.68133611143519
C            2.61664118016959        0.86822410957692       -5.31832545548343
H            5.69568990316993        2.07039399135723       -4.49686167881597
H            5.66451982008442        2.58888601543163       -6.90179321801116
H            3.69591244392958        2.04939866456735       -8.27430664425554
H            1.72209805889371        0.97005368594275       -7.26837278478496
N            1.66546548733437        0.30953795060971       -4.48372693712973
C            2.17648054221890        0.23562340713924       -3.21336592070191
H            0.72222206896855        0.04412803569918       -4.77296842509662
H            1.61711597125825       -0.08960208318697       -2.34930741636978
