48
Energy =
C    -1.5257999    2.3953426   -6.8775846 
C    -1.1259762    1.6951207   -5.7859989 
C    -1.4286954    1.8438682   -8.1168062 
C    -0.9286710    0.5948946   -8.2548314 
C    -0.5260339   -0.1095415   -7.1670017 
C    -0.6272539    0.4356714   -5.9237272 
H    -1.2026830    2.1516873   -4.8022352 
H    -0.8518460    0.1680938   -9.2486436 
H    -0.1188307   -1.1080328   -7.3010080 
H    -1.9204093    3.3982920   -6.7569893 
C    -0.1641804   -0.3360175   -4.7074838 
C     1.2104150    0.1526992   -4.1956722 
H    -0.1155868   -1.4268719   -4.9244528 
H    -0.9235712   -0.2230126   -3.9018208 
C     1.5590088   -0.5042362   -2.8686537 
O    -1.8337202    2.5374614   -9.2622988 
H    -2.1823754    3.4712271   -9.0755998 
O     1.4554992   -1.8880729   -2.7471532 
N     2.2632520   -0.1150386   -5.1916655 
H     1.1435779    1.2484161   -4.0114291 
H     2.1984672   -1.1042671   -5.5318938 
H     2.1309850    0.5149235   -6.0188441 
N     1.8862753    0.2707420   -1.6970479 
C     3.1966095    0.9717803   -1.7726536 
H     1.9108682   -0.4056831   -0.8980279 
C     3.1145289    2.2664251   -2.5834613 
O     4.1565097    2.6303633   -3.4276921 
O     2.0465838    3.1505893   -2.4294413 
H     1.3786624    2.8054889   -1.7549738 
C     4.3570630    0.0424109   -2.2354713 
H     3.4431456    1.3340916   -0.7499397 
C     4.6499751   -1.0542387   -1.2351590 
H     5.2860644    0.6388609   -2.3741216 
H     4.1408540   -0.3855918   -3.2413347 
C     5.2940447   -0.9181799   -0.0644292 
C     5.8456114    0.1857028    0.5029579 
C     6.4536369    0.0552159    1.7169582 
C     6.5029387   -1.1625900    2.3375348 
C     5.9457330   -2.2578103    1.7468685 
C     5.3496904   -2.1028385    0.5461336 
H     5.8131362    1.1532512    0.0101683 
H     6.9030851    0.9239721    2.1928297 
H     6.9900765   -1.2588729    3.3051167 
H     5.9778838   -3.2317841    2.2241747 
N     4.7186069   -3.1067408   -0.2348736 
C     4.2937697   -2.3439054   -1.3728006 
H     4.5994438   -4.1279770   -0.0400621 
H     3.7601811   -2.7605804   -2.2248332 
