48
Energy =
C    -0.2069579   -0.2733034    0.4841057 
C     1.0819072    0.1493345    0.5119791 
C    -1.0796120    0.1316037    1.4447770 
C    -0.6551422    0.9569269    2.4274708 
C     0.6325877    1.3822056    2.4601536 
C     1.5110950    0.9838488    1.4981575 
H     1.7655815   -0.1940331   -0.2559943 
H    -1.3606883    1.2720965    3.1878326 
H     0.9518579    2.0423494    3.2614026 
H    -0.5363227   -0.9383211   -0.3070780 
C     2.9510205    1.4550546    1.5294700 
C     3.1803468    2.8071432    0.7980834 
H     3.6021933    0.6708679    1.0867026 
H     3.2858514    1.5452236    2.5864693 
C     2.8776580    2.7460860   -0.7018577 
O    -2.4134108   -0.2885146    1.4486498 
H    -2.6584006   -0.8844378    0.6654023 
O     1.9135395    3.5820412   -1.2525602 
N     2.4491847    3.8953030    1.4749555 
H     4.2615997    3.0599658    0.8440350 
H     1.4196015    3.8096384    1.2930829 
H     2.5983897    3.8632360    2.5103482 
N     3.4569279    1.7423402   -1.5515346 
C     4.9184826    1.5299764   -1.5261838 
H     2.7903115    1.0925212   -2.0220059 
C     5.6526675    2.6794711   -2.2128053 
O     5.5437937    2.8384219   -3.5880634 
O     6.4603547    3.5661487   -1.4981925 
H     6.5193670    3.3461085   -0.5181214 
C     5.2646435    0.1901700   -2.2125004 
H     5.2765180    1.4652413   -0.4797596 
C     4.6209601   -0.9895061   -1.5164264 
H     6.3678948    0.0455120   -2.2293039 
H     4.9394356    0.2312700   -3.2785799 
C     4.9643938   -1.5081785   -0.3270180 
C     5.9742970   -1.1657041    0.5136025 
C     6.0943414   -1.8428096    1.6914772 
C     5.2138664   -2.8405577    2.0073898 
C     4.2104651   -3.1702042    1.1451426 
C     4.1149012   -2.4881213   -0.0151041 
H     6.6784216   -0.3786245    0.2607935 
H     6.8965559   -1.5910078    2.3814269 
H     5.3163207   -3.3765366    2.9480646 
H     3.5040694   -3.9596402    1.3796651 
N     3.1457923   -2.6651519   -1.0381808 
C     3.5463764   -1.6562518   -1.9743137 
H     2.3510989   -3.3439166   -1.0880738 
H     3.0313351   -1.4470630   -2.9101765 
