48
 energy: -9.288379242850 gnorm: 0.000877158499 xtb: 6.6.0 (2ccbbd7)
C            2.99518771405798        6.09597994810548        2.12255087826089
C            2.77439947929446        4.98268750311930        1.34870851436058
C            2.02768220546140        6.53304348358631        3.02777543734015
C            0.83681636768856        5.81299198731181        3.12087973134178
C            0.62376380577886        4.70007154094863        2.34309530589905
C            1.59131379013441        4.26549510896226        1.44880722592473
H            3.52009217607121        4.65846382657344        0.64135418851745
H            0.09050702761260        6.15175559141238        3.81703680034904
H           -0.30130429359189        4.15568344440313        2.42381030301887
H            3.91694485043373        6.64276203836344        2.03367688814592
C            1.36051110168301        3.07194628306009        0.57515812626916
C            1.17041220168857        3.44718082705469       -0.89662026775575
H            0.48011805806953        2.51908328933179        0.91455175327495
H            2.20298528298109        2.38253947740527        0.68049902062956
C            1.09993759549216        2.21314963985639       -1.76942680625708
O            2.21676867853642        7.64765880394647        3.82215010438623
H            3.09460419142514        8.04611158973701        3.63855913125109
O            0.00143150951363        1.72661546814871       -1.94599411225319
N           -0.03752542966171        4.23129307478819       -1.10711507300089
H            2.00852409564804        4.07751904689468       -1.22595003781073
H           -0.82586688011433        3.59064519303033       -1.15357479053536
H           -0.18716811238021        4.87981167570607       -0.34373966304625
N            2.23499660702035        1.65464900167358       -2.33232420351725
C            3.60389675963165        1.83453231359457       -1.81846278760998
H            2.11411198594831        0.78135530305528       -2.83898558274812
C            3.97489020215557        3.30046390351738       -1.78709943572737
O            4.53549557935279        3.73328004923012       -0.80268473395112
O            3.63300944833173        4.02026683439461       -2.88144450035416
H            3.13879344000587        3.45558495633432       -3.52066134862144
C            4.61604066556842        1.02238651426849       -2.63499674243245
H            3.61428490237389        1.46326325266487       -0.78517425709946
C            5.97658898161738        0.90534947879667       -2.02556852906887
H            4.70587155562508        1.46701503672808       -3.63012544075240
H            4.21960087216283        0.01467469144783       -2.79173779812783
C            6.91142022276217       -0.14225884690118       -2.28081952775118
C            6.85236231238152       -1.30354225571064       -3.07078070359678
C            7.94540103659939       -2.12417251741948       -3.11265634124308
C            9.10924804452627       -1.82313074738639       -2.38665987924217
C            9.18991224940580       -0.69850017011794       -1.61212658418574
C            8.08130742206539        0.15529129117136       -1.55492052993763
H            5.96096376156117       -1.52925958666020       -3.62832284534698
H            7.91618365561405       -3.01749507691290       -3.71409088698727
H            9.95292734819319       -2.49080854534245       -2.44318436496744
H           10.07762432875049       -0.45869332240091       -1.05508059859729
N            7.86425706297806        1.34739271302999       -0.88747611635441
C            6.60143004709461        1.79154171268788       -1.18347529354942
H            8.55017447423816        1.81897301184203       -0.29500050307334
H            6.17020871624538        2.70582840733241       -0.81202602292992
