48
Energy =
C     4.0659996    2.8151312    1.2718542 
C     2.9000451    2.1880195    1.5722150 
C     4.0569953    3.9508532    0.5246456 
C     2.8791707    4.4613558    0.0968568 
C     1.7109588    3.8383895    0.3948923 
C     1.7150033    2.6961521    1.1337746 
H     2.9185880    1.2561695    2.1365567 
H     2.8842448    5.3651394   -0.5039124 
H     0.7759480    4.2506587    0.0231300 
H     5.0065556    2.3960454    1.6131819 
C     0.4221696    1.9559335    1.4005108 
C    -0.0441505    1.1443270    0.1685814 
H    -0.3666019    2.6873503    1.6823656 
H     0.5375425    1.2683420    2.2683967 
C     1.0249074    0.1843172   -0.3355892 
O     5.2423764    4.5985296    0.1655969 
H     6.0824828    4.1525352    0.5176642 
O     1.7838056   -0.5609513    0.5657272 
N    -1.2845494    0.4221057    0.4879710 
H    -0.2546382    1.8514409   -0.6672883 
H    -1.1033955   -0.2655600    1.2587934 
H    -2.0140459    1.0942429    0.8222290 
N     1.4361717    0.2315764   -1.7066908 
C     2.7283680    0.8774800   -1.9909273 
H     0.8074433   -0.1529621   -2.4490238 
C     2.6284370    1.8172612   -3.1864729 
O     1.9274066    1.4222307   -4.3190704 
O     3.2917557    3.0459402   -3.2128690 
H     3.8865914    3.1914052   -2.4104101 
C     3.7821352   -0.2242141   -2.2130290 
H     3.0288222    1.5062659   -1.1270608 
C     5.1832968    0.3020113   -2.0024698 
H     3.6680358   -0.6759051   -3.2237091 
H     3.5989160   -1.0509519   -1.4877134 
C     5.9819101    0.8772630   -2.9151346 
C     5.7800725    1.0914833   -4.2405801 
C     6.7580432    1.7227903   -4.9507973 
C     7.9100196    2.1256258   -4.3338720 
C     8.0906226    1.9008844   -3.0014661 
C     7.1088017    1.2739217   -2.3200587 
H     4.8627514    0.7823041   -4.7342026 
H     6.6160396    1.9127808   -6.0122872 
H     8.6822087    2.6323504   -4.9074858 
H     8.9961450    2.2198922   -2.4965715 
N     7.0904913    0.9614886   -0.9335667 
C     5.8045027    0.3405917   -0.8105532 
H     7.8161266    1.1493206   -0.2041968 
H     5.3846473   -0.0316220    0.1221779 
