48
 energy: -9.063092588402 gnorm: 0.000297610987 xtb: 6.6.0 (2ccbbd7)
C           -2.04841248788406        1.04173421763257       -0.45353164723557
C           -1.20805927567138        0.55873781617912       -1.42788497146184
C           -2.99830810253014        2.01741092043233       -0.75827380575982
C           -3.06637628096161        2.48598801990668       -2.07031642376969
C           -2.22230846786532        1.99600997306670       -3.03837569794946
C           -1.28552933258158        1.01892057468865       -2.73406480611090
H           -0.45281816593270       -0.16853193284630       -1.18235688046272
H           -3.79302756048782        3.24375565857677       -2.30303651123566
H           -2.27965916517214        2.37386894002550       -4.04474426230994
H           -1.97507486023823        0.67804460355547        0.55568432367244
C           -0.34422667985972        0.50212099606457       -3.77950956375147
C            1.06695877437362        1.08783796846311       -3.65699966063195
H           -0.74932830402353        0.70940821662373       -4.77484290677024
H           -0.27690269844798       -0.58731997920099       -3.70156455499397
C            1.75575355422194        0.58367471897706       -2.40421319702898
O           -3.85845686045826        2.52739994621855        0.19568876138009
H           -3.67766425095371        2.11294865938185        1.06690191407305
O            1.50998362768724       -0.55030356668634       -2.03763214448726
N            1.88892940383177        0.78528707624764       -4.82369035382137
H            0.96662161275146        2.18067858574449       -3.56639997610498
H            2.06314218581261       -0.20932231419399       -4.83278500021107
H            1.38714554465333        1.00278357514785       -5.67484940171359
N            2.63349266927968        1.41531240513704       -1.68473115515844
C            3.96499270808203        1.84338741819049       -2.21093823551708
H            2.78176123052534        1.11178918968096       -0.72267562276872
C            3.93041631470448        3.17130979815751       -2.90964569904541
O            4.79382959081654        4.12771445881133       -2.44526134701992
O            3.11495788324669        3.37116144161480       -3.99438500919399
H            2.73218339985608        2.50442856644091       -4.29022816344503
C            4.63021553444868        0.75956651605094       -3.06929536085429
H            4.60863639378900        1.99213843502991       -1.32857543651673
C            6.12885538111038        0.73642761810570       -3.02544490548205
H            4.29852417457870        0.85914853486880       -4.10664694326204
H            4.26053915906351       -0.21627064080154       -2.73441490681537
C            7.05938900034339        1.78262549813198       -2.71582521470942
C            6.93489801334229        3.13907541545125       -2.37379989241910
C            8.05265237249793        3.87845156973940       -2.12692670477056
C            9.33210785138225        3.30758187986952       -2.20823578940014
C            9.49245034760109        1.99265318600300       -2.54631968065555
C            8.35159902274934        1.22161384776803       -2.80433431631010
H            5.83186149480144        3.67956295351323       -2.37092140884074
H            7.95057529527520        4.92077602082911       -1.87422882620544
H           10.19738040640913        3.91726680742852       -2.00730077951192
H           10.46676261627914        1.54361651279038       -2.61821725474745
N            8.21042356302486       -0.10328535984516       -3.16862772579737
C            6.87490114573372       -0.38268896085255       -3.30305153609515
H            8.98538135871771       -0.75165622085099       -3.31971981642740
H            6.47517281558332       -1.34428861318164       -3.58194092473981
