48
Energy =
C     0.3225652   -1.8737313   -7.6069862 
C     0.7278011   -1.4442208   -6.3827166 
C     0.9434792   -2.9164411   -8.2103526 
C     1.9731410   -3.5268105   -7.5920111 
C     2.3888578   -3.1092343   -6.3696881 
C     1.7660685   -2.0657306   -5.7283771 
H     0.1938234   -0.5989649   -5.9810879 
H     2.4637458   -4.3555242   -8.0988891 
H     3.2351557   -3.6232751   -5.9163789 
H    -0.5008390   -1.3758205   -8.1138200 
C     2.3109715   -1.6356912   -4.3435295 
C     1.3152041   -1.0819176   -3.2805704 
H     3.2280440   -0.9213173   -4.3732374 
H     2.7322198   -2.5722157   -3.9101891 
C     2.2014443   -0.8423230   -2.0773139 
O     0.5485822   -3.3788862   -9.4640993 
H    -0.2258693   -2.8730824   -9.8832586 
O     2.9513198   -1.9049303   -1.6013834 
N     0.5759904    0.1568267   -3.6274275 
H     0.5837747   -1.8802631   -3.0236359 
H    -0.4530506   -0.0093756   -3.7711536 
H     0.9913572    0.6636518   -4.4421816 
N     2.3080970    0.4056724   -1.3631578 
C     3.1001634    1.5195976   -1.9685631 
H     1.3522011    0.7057635   -1.0489480 
C     2.2661905    2.4496822   -2.8302348 
O     2.5675279    2.5686104   -4.1803057 
O     1.1981796    3.1694605   -2.3121961 
H     1.1467004    3.1338202   -1.3025882 
C     4.3895753    1.1122160   -2.7446867 
H     3.4341467    2.1466022   -1.1173668 
C     5.2820981    0.1399591   -2.0099107 
H     4.9883313    2.0324822   -2.9265565 
H     4.1530627    0.7406851   -3.7627732 
C     6.0136476    0.3962809   -0.9104883 
C     6.1266558    1.5367223   -0.1757189 
C     6.9656778    1.5338051    0.8994034 
C     7.6794081    0.4127733    1.2172375 
C     7.5641122   -0.7127286    0.4593248 
C     6.7249802   -0.6893633   -0.5961130 
H     5.5851982    2.4463863   -0.4183440 
H     7.0747957    2.4302113    1.5084841 
H     8.3490128    0.4209029    2.0755193 
H     8.1351795   -1.6065459    0.6939348 
N     6.4935000   -1.7360573   -1.5247436 
C     5.5561984   -1.1170752   -2.4128876 
H     6.9166890   -2.6956669   -1.5494883 
H     5.1416652   -1.6067717   -3.2935937 
