48
Energy =
C    -0.2833103    3.7625278    3.4165096 
C     0.4591264    4.3194221    2.4263286 
C    -1.1867106    2.7879705    3.1279554 
C    -1.3409333    2.3776564    1.8488514 
C    -0.6027965    2.9324994    0.8547252 
C     0.3031726    3.9090021    1.1371089 
H     1.1783799    5.0963613    2.6726709 
H    -2.0615795    1.5972092    1.6304782 
H    -0.7407792    2.5845392   -0.1658142 
H    -0.1521059    4.0979346    4.4396463 
C     1.1460777    4.5251121    0.0397098 
C     2.5826867    3.9416613    0.0191339 
H     1.1827723    5.6243429    0.2050901 
H     0.6666407    4.3835537   -0.9562084 
C     2.6533505    2.5231008   -0.5386262 
O    -1.9668087    2.1932212    4.1248754 
H    -1.7922304    2.5559509    5.0554853 
O     1.5390417    1.9236399   -1.1188275 
N     3.4708651    4.8362565   -0.7363408 
H     2.9636208    3.8757797    1.0634105 
H     3.1393294    4.9225837   -1.7285010 
H     3.4717116    5.7933412   -0.3138855 
N     3.8536256    1.7507182   -0.3824602 
C     4.6315356    1.4106255   -1.5899623 
H     4.1642534    1.4816261    0.5769599 
C     4.9759660    2.6428365   -2.4351037 
O     4.1352796    3.0407133   -3.4714039 
O     6.1073516    3.4146609   -2.1672093 
H     6.5777498    3.1066668   -1.3295461 
C     3.8874016    0.3177716   -2.3858577 
H     5.6026638    0.9793001   -1.2597554 
C     4.7650458   -0.2895520   -3.4576235 
H     2.9664650    0.7416733   -2.8470145 
H     3.5401159   -0.4781707   -1.6919715 
C     5.6653809   -1.2713369   -3.2965551 
C     5.9956416   -1.9748781   -2.1832424 
C     6.9650368   -2.9291443   -2.2840907 
C     7.5845227   -3.1608005   -3.4812482 
C     7.2386348   -2.4388072   -4.5849905 
C     6.2748752   -1.5023550   -4.4602229 
H     5.5068109   -1.7889558   -1.2315734 
H     7.2473754   -3.5075838   -1.4079454 
H     8.3573079   -3.9218006   -3.5531665 
H     7.7231749   -2.6064331   -5.5407602 
N     5.7802348   -0.6378576   -5.4731151 
C     4.8100709    0.1208532   -4.7372932 
H     6.0490031   -0.5750257   -6.4816065 
H     4.2171667    0.9357732   -5.1513621 
