48
Energy =
C     5.0703758    4.5294594    4.5935712 
C     5.1148080    3.8927710    3.3956147 
C     3.8792090    4.9389679    5.1059802 
C     2.7397976    4.7092268    4.4146545 
C     2.7783933    4.0733501    3.2164080 
C     3.9681034    3.6617240    2.6986815 
H     6.0735186    3.5710073    2.9965820 
H     1.7963364    5.0419723    4.8337023 
H     1.8517497    3.8986174    2.6756289 
H     5.9892380    4.7107523    5.1407195 
C     4.0095728    2.9404140    1.3696519 
C     3.5392265    1.4650640    1.4879917 
H     5.0346246    2.9744755    0.9387083 
H     3.3673008    3.5010244    0.6504212 
C     3.3153440    0.7883424    0.1397512 
O     3.7978975    5.5951266    6.3382900 
H     4.6942213    5.7397211    6.7902564 
O     2.7775248   -0.4922516    0.1125712 
N     4.4960432    0.6911912    2.2958922 
H     2.5404538    1.4364953    1.9823617 
H     5.4656295    0.8063119    1.9176655 
H     4.4909916    1.0368539    3.2837906 
N     3.2841487    1.5475623   -1.0735738 
C     4.5524915    1.7168433   -1.7995678 
H     2.3833971    1.9702310   -1.3939036 
C     4.9152237    3.1921641   -1.9106491 
O     3.9113966    4.1348791   -2.0958500 
O     6.2404153    3.6252689   -1.8815120 
H     6.8938070    2.8582322   -1.8147761 
C     4.3957547    1.0780555   -3.1884576 
H     5.3796485    1.2037286   -1.2544975 
C     5.7242185    0.9673145   -3.9016603 
H     3.6810123    1.6761159   -3.7984373 
H     3.9417173    0.0679959   -3.0822783 
C     6.6162527   -0.0280668   -3.7834925 
C     6.5534726   -1.1708744   -3.0525938 
C     7.6167971   -2.0241935   -3.0927820 
C     8.7159647   -1.7234708   -3.8491735 
C     8.7592457   -0.5659686   -4.5685545 
C     7.6931738    0.2597582   -4.5158176 
H     5.6855457   -1.4077808   -2.4431369 
H     7.5910450   -2.9468027   -2.5174923 
H     9.5605152   -2.4076232   -3.8736146 
H     9.6265179   -0.3080197   -5.1668083 
N     7.5464613    1.5159975   -5.1623386 
C     6.2469106    1.9129231   -4.7022990 
H     8.2063528    2.0147561   -5.8023353 
H     5.7788134    2.8730399   -4.9203168 
