48
Energy =
C    -3.9011243   -0.5033081    1.1984227 
C    -2.8562230   -0.8694433    0.4140545 
C    -3.6813545    0.1695833    2.3594466 
C    -2.4155481    0.4728157    2.7268137 
C    -1.3665490    0.1095610    1.9459920 
C    -1.5810880   -0.5680614    0.7851556 
H    -3.0484612   -1.4012570   -0.5141902 
H    -2.2541717    1.0115063    3.6540827 
H    -0.3567707    0.3644725    2.2569519 
H    -4.9124933   -0.7487349    0.8933860 
C    -0.4131197   -0.9591601   -0.0930373 
C     0.1070435    0.2261639   -0.9433388 
H    -0.6847761   -1.8057881   -0.7621322 
H     0.4063853   -1.3451206    0.5546218 
C     1.4218786   -0.0982905   -1.6365697 
O    -4.7357277    0.5614229    3.1909292 
H    -5.6520371    0.2986343    2.8448678 
O     2.0482071   -1.3285195   -1.4334081 
N    -0.9070059    0.6385800   -1.9293355 
H     0.3410900    1.0859174   -0.2727532 
H    -1.2128684   -0.1875062   -2.4969748 
H    -1.7509808    1.0167850   -1.4379825 
N     2.1093555    0.9263119   -2.3707982 
C     3.5762320    0.8263114   -2.4842298 
H     1.5671179    1.7552150   -2.7128420 
C     4.2355646    2.1988079   -2.3915247 
O     3.6885315    3.2745276   -3.0805183 
O     5.4298592    2.3951131   -1.6955754 
H     5.7957224    1.5433905   -1.2989125 
C     3.9019358    0.1294803   -3.8186545 
H     3.9783823    0.2217739   -1.6384159 
C     5.3590457   -0.2634221   -3.9076354 
H     3.6098826    0.7806748   -4.6723212 
H     3.2770447   -0.7888188   -3.9061928 
C     6.3657781    0.4609874   -4.4226268 
C     6.3494619    1.6850208   -5.0106210 
C     7.5304191    2.2111573   -5.4444108 
C     8.6968401    1.5150995   -5.2864869 
C     8.6897408    0.2887653   -4.6910379 
C     7.5087179   -0.2108621   -4.2702852 
H     5.4274852    2.2474634   -5.1293286 
H     7.5436065    3.1930889   -5.9120323 
H     9.6341432    1.9442561   -5.6320818 
H     9.6071154   -0.2734597   -4.5528348 
N     7.2862559   -1.4525497   -3.6159778 
C     5.8681668   -1.4046665   -3.4113412 
H     7.9730607   -2.1962657   -3.3521835 
H     5.2896627   -2.1797988   -2.9110331 
