48
Energy =
C     6.3999298    3.7407379    1.1894956 
C     5.4317713    2.8454335    0.8712281 
C     6.9344179    3.7540387    2.4394933 
C     6.4932526    2.8720862    3.3647307 
C     5.5228260    1.9759580    3.0535445 
C     4.9876524    1.9544296    1.8014928 
H     5.0135172    2.8551282   -0.1319771 
H     6.9259882    2.8964754    4.3592665 
H     5.1775745    1.2806343    3.8143969 
H     6.7426200    4.4483363    0.4417688 
C     3.8963293    0.9674921    1.4491334 
C     2.5011489    1.6436537    1.3895911 
H     3.8690752    0.1261924    2.1782084 
H     4.1524826    0.4932421    0.4758330 
C     1.4970364    0.7412440    0.6624510 
O     7.9354838    4.6608030    2.7996752 
H     8.1948592    5.3051414    2.0600570 
O     0.9753414   -0.3334229    1.3765961 
N     2.0329789    1.9512665    2.7539920 
H     2.5501566    2.6053724    0.8354101 
H     1.9786458    1.0777894    3.3321571 
H     2.6877499    2.6175066    3.2267090 
N     1.2984899    0.7150350   -0.7748207 
C     2.1271547    1.6334242   -1.5972364 
H     1.4841194   -0.2784553   -1.0442289 
C     1.6173226    3.0668216   -1.5330765 
O     2.5262189    4.0809736   -1.2602877 
O     0.2813009    3.3929832   -1.7423495 
H    -0.2797091    2.5612076   -1.8589257 
C     2.1506646    1.1514565   -3.0679596 
H     3.1754049    1.6590796   -1.2388902 
C     3.0800026   -0.0281809   -3.2533271 
H     2.4923183    1.9711169   -3.7412091 
H     1.1193688    0.8874982   -3.3944833 
C     4.4218943    0.0027526   -3.2407776 
C     5.2666969    1.0576465   -3.1041990 
C     6.6089468    0.8163325   -3.1050696 
C     7.0810691   -0.4600897   -3.2419078 
C     6.2133088   -1.5029876   -3.3798832 
C     4.8899868   -1.2383515   -3.3770755 
H     4.8927671    2.0730658   -3.0005335 
H     7.3072305    1.6435659   -2.9997743 
H     8.1526710   -0.6443828   -3.2431100 
H     6.5710034   -2.5213434   -3.4890506 
N     3.8257676   -2.1722669   -3.4923212 
C     2.6873581   -1.3056101   -3.4001657 
H     3.8625360   -3.2112531   -3.6073998 
H     1.6536776   -1.6436245   -3.4256697 
