48
Energy =
C     0.2032710   -1.0929898    0.0409074 
C     1.2437118   -0.9922464    0.9055224 
C    -0.8126907   -0.1912568    0.0852621 
C    -0.7806756    0.8072907    0.9961193 
C     0.2562904    0.9129214    1.8644753 
C     1.2779273    0.0132868    1.8245064 
H     2.0549166   -1.7148845    0.8485621 
H    -1.5950484    1.5230525    1.0184480 
H     0.2649345    1.7244198    2.5868539 
H     0.1857493   -1.8959521   -0.6863806 
C     2.4535953    0.1391091    2.7726841 
C     3.5905608    1.0458323    2.2382297 
H     2.8725233   -0.8725559    2.9767852 
H     2.1055283    0.5177365    3.7586869 
C     4.0988335    0.6081679    0.8735502 
O    -1.8999320   -0.2695594   -0.7900282 
H    -1.8325513   -1.0245428   -1.4634953 
O     4.9154350   -0.5145614    0.7827735 
N     3.2000221    2.4661938    2.2589969 
H     4.4650341    0.9240081    2.9181632 
H     2.4346385    2.6535419    1.5687231 
H     2.8503909    2.7340805    3.2084120 
N     3.5363289    1.1513771   -0.3257447 
C     4.4505919    1.8202833   -1.2636710 
H     2.5111257    1.0718563   -0.5082701 
C     3.8489395    3.1166535   -1.7983835 
O     2.4686534    3.2614569   -1.8844401 
O     4.6548397    4.1311922   -2.3139419 
H     5.6369077    3.9335678   -2.1922408 
C     4.8112957    0.8489319   -2.4055144 
H     5.3911443    2.1038595   -0.7376177 
C     3.5867495    0.2648816   -3.0852834 
H     5.4479103    0.0375403   -1.9931232 
H     5.4357968    1.3721316   -3.1629609 
C     3.0455587   -0.9485434   -2.8790474 
C     3.4392557   -1.9540834   -2.0543631 
C     2.7061675   -3.1039190   -2.0357734 
C     1.6002086   -3.2311579   -2.8294366 
C     1.2168909   -2.2058030   -3.6416508 
C     1.9596037   -1.0790320   -3.6438594 
H     4.3126181   -1.8585288   -1.4169982 
H     3.0047233   -3.9228769   -1.3855612 
H     1.0224063   -4.1518954   -2.8103941 
H     0.3393307   -2.2869153   -4.2741763 
N     1.7284417    0.0963716   -4.4057335 
C     2.8242491    0.9195251   -3.9800061 
H     0.9721019    0.3021772   -5.0987475 
H     2.9829571    1.9518678   -4.2952390 
