48
Energy =
C    -3.6806461   -1.8267718   -0.0331274 
C    -2.3789078   -1.6672898   -0.3823498 
C    -4.1119928   -1.4342391    1.1954554 
C    -3.2364120   -0.8832482    2.0664430 
C    -1.9337889   -0.7209354    1.7224904 
C    -1.4960889   -1.1161109    0.4956469 
H    -2.0506624   -1.9807110   -1.3698688 
H    -3.5930111   -0.5728459    3.0423953 
H    -1.2456182   -0.2736177    2.4353135 
H    -4.3758704   -2.2674716   -0.7394277 
C    -0.0477084   -0.9189982    0.1064854 
C     0.2533491    0.5430200   -0.3060665 
H     0.2379945   -1.6098941   -0.7170506 
H     0.5915251   -1.2061301    0.9733083 
C     1.7514146    0.7741681   -0.4577295 
O    -5.4465576   -1.5838463    1.5866097 
H    -6.0383157   -2.0049043    0.8788603 
O     2.6102175    0.2751919    0.5196695 
N    -0.4795059    0.8870968   -1.5390379 
H    -0.0559620    1.2312786    0.5154310 
H    -0.3125252    0.1625842   -2.2771579 
H    -1.5091299    0.9085315   -1.3455632 
N     2.2604677    1.6976395   -1.4352520 
C     3.7227022    1.8959203   -1.5111746 
H     1.5853870    2.2473153   -2.0174887 
C     4.0932162    3.2254049   -2.1610180 
O     3.2184049    3.8434149   -3.0469040 
O     5.3445785    3.8076683   -1.9493840 
H     5.9073978    3.2849025   -1.2943939 
C     4.3730484    0.7014535   -2.2461847 
H     4.1396764    1.9524131   -0.4795210 
C     3.7670542    0.4611829   -3.6139088 
H     4.2392126   -0.2136606   -1.6261931 
H     5.4708151    0.8513924   -2.3348928 
C     4.1413551    1.0147565   -4.7792204 
C     5.1440571    1.8903091   -5.0490530 
C     5.3104666    2.3094626   -6.3362946 
C     4.4841911    1.8508612   -7.3246071 
C     3.4849239    0.9713113   -7.0311268 
C     3.3393210    0.5724237   -5.7500684 
H     5.7970150    2.2649029   -4.2665769 
H     6.0996764    3.0186063   -6.5750866 
H     4.6205751    2.1936714   -8.3472634 
H     2.8176048    0.6014530   -7.8020803 
N     2.3649086   -0.3256357   -5.2375034 
C     2.7095421   -0.3367525   -3.8461644 
H     1.6069048   -0.8395909   -5.7422703 
H     2.1757345   -0.8991174   -3.0838837 
