48
Energy =
C     2.0083428    1.0949361    1.2036556 
C     1.2475116    0.4759991    0.2658648 
C     2.7737422    0.3634950    2.0551161 
C     2.7642932   -0.9847299    1.9694119 
C     2.0118381   -1.6087725    1.0287799 
C     1.2668769   -0.8822819    0.1477342 
H     0.6176602    1.0833678   -0.3741818 
H     3.3690094   -1.5573070    2.6641556 
H     2.0161202   -2.6943812    0.9824360 
H     1.9994508    2.1775928    1.2738754 
C     0.4303291   -1.5898711   -0.9077455 
C     1.1849353   -2.0954232   -2.1765672 
H    -0.4232818   -0.9470773   -1.2176599 
H    -0.0453938   -2.4710979   -0.4223074 
C     1.3377481   -1.0862454   -3.3218243 
O     3.5695005    0.9694738    3.0320724 
H     3.5683322    1.9832272    2.9892879 
O     0.9051846   -1.4614650   -4.5879802 
N     2.4461583   -2.7928496   -1.8587114 
H     0.5081566   -2.8592115   -2.6340499 
H     3.0834384   -2.2117059   -1.2738965 
H     2.2320700   -3.6596979   -1.3106272 
N     1.7738748    0.2756024   -3.1574157 
C     3.1708378    0.4128198   -2.6921631 
H     1.1059552    0.7384273   -2.5077819 
C     3.4961976    1.8795823   -2.4218716 
O     4.0670786    2.2408495   -1.2082293 
O     3.2378604    2.8760733   -3.3638679 
H     2.7761477    2.4976867   -4.1793795 
C     4.1456232   -0.1954422   -3.7356901 
H     3.2998381   -0.0924550   -1.7134461 
C     5.5495265   -0.3135847   -3.1834703 
H     4.1390735    0.4047003   -4.6711238 
H     3.8070786   -1.2149983   -4.0367121 
C     6.5346331    0.5966450   -3.2617575 
C     6.5543475    1.8136227   -3.8642821 
C     7.6958145    2.5561842   -3.7890422 
C     8.7894460    2.0768418   -3.1226775 
C     8.7477929    0.8515074   -2.5267324 
C     7.6068629    0.1359791   -2.6146734 
H     5.6882126    2.2016201   -4.3908207 
H     7.7330929    3.5371249   -4.2570006 
H     9.6940024    2.6769781   -3.0640062 
H     9.6047068    0.4579739   -1.9907828 
N     7.3552620   -1.1485106   -2.0626291 
C     5.9993048   -1.3634759   -2.4730092 
H     7.9913447   -1.7685212   -1.5107916 
H     5.4198093   -2.2534380   -2.2353832 
