48
Energy =
C    -0.5268200    6.5385883   -2.5183839 
C     0.2928603    6.2656673   -1.4716900 
C    -1.1668486    5.5293202   -3.1670029 
C    -0.9812379    4.2523764   -2.7634241 
C    -0.1659800    3.9740116   -1.7154473 
C     0.4785004    4.9798533   -1.0616116 
H     0.7980165    7.0844818   -0.9663312 
H    -1.4908861    3.4550114   -3.2930917 
H    -0.0248850    2.9400807   -1.4131685 
H    -0.6688729    7.5660772   -2.8358315 
C     1.4029704    4.6738126    0.1004597 
C     2.8341696    4.2637136   -0.3329730 
H     0.9579575    3.8664152    0.7240684 
H     1.4694107    5.5573011    0.7739009 
C     2.8690091    2.9154495   -1.0369804 
O    -2.0193897    5.7766610   -4.2476445 
H    -2.0991087    6.7570002   -4.4947523 
O     2.6267567    2.8399205   -2.4040068 
N     3.4715735    5.3140436   -1.1442841 
H     3.4404525    4.1334489    0.5931300 
H     2.9857392    5.3957819   -2.0700576 
H     3.3923658    6.2377078   -0.6595648 
N     2.7906181    1.7085623   -0.2690600 
C     4.0413064    0.9851525    0.0378429 
H     1.8684077    1.4115771    0.1195461 
C     5.0871636    1.8614513    0.7296869 
O     5.2358316    1.7677926    2.1071592 
O     5.8629205    2.7965632    0.0432040 
H     5.6595922    2.8119162   -0.9444278 
C     4.5707143    0.2802082   -1.2308205 
H     3.8061301    0.1939382    0.7864988 
C     3.6209807   -0.8053812   -1.6855375 
H     5.5711778   -0.1658375   -1.0363565 
H     4.7032934    1.0113390   -2.0581973 
C     3.5349370   -2.0537827   -1.2007528 
C     4.2669546   -2.6644906   -0.2337282 
C     3.9693258   -3.9569741    0.0845714 
C     2.9550982   -4.6110608   -0.5589924 
C     2.2312503   -3.9758814   -1.5242881 
C     2.5460164   -2.6978634   -1.8225610 
H     5.0698991   -2.1453260    0.2811487 
H     4.5408005   -4.4689996    0.8549771 
H     2.7234963   -5.6408036   -0.2988616 
H     1.4212871   -4.4785338   -2.0417303 
N     1.9132041   -1.8574629   -2.7773190 
C     2.6656348   -0.6467291   -2.6181100 
H     1.1132359   -2.0628895   -3.4184326 
H     2.4734713    0.2762969   -3.1620596 
