48
Energy =
C    -1.4282981   -1.4264630    3.6334969 
C    -0.8063062   -1.6061569    2.4408706 
C    -2.7495997   -1.1070274    3.6741137 
C    -3.4390143   -0.9678956    2.5188929 
C    -2.8219322   -1.1455193    1.3233177 
C    -1.5007311   -1.4700872    1.2778405 
H     0.2515169   -1.8567134    2.4236309 
H    -4.4912067   -0.7101094    2.5643199 
H    -3.3925079   -1.0226725    0.4066399 
H    -0.8654716   -1.5370779    4.5539498 
C    -0.8015493   -1.6542875   -0.0505336 
C     0.0728597   -0.4365233   -0.4274125 
H    -1.5357890   -1.8486707   -0.8648182 
H    -0.1649320   -2.5653812    0.0065301 
C     0.9064209   -0.7434659   -1.6582696 
O    -3.4212050   -0.9156310    4.8864186 
H    -2.8322998   -1.0299284    5.7040024 
O     0.2814626   -0.9084052   -2.8911604 
N    -0.7580250    0.7576180   -0.6515563 
H     0.7899941   -0.2261739    0.4000717 
H    -1.5010277    0.5415987   -1.3583540 
H    -1.2307652    1.0320139    0.2410948 
N     2.2544043   -1.2105039   -1.5139107 
C     3.2592459   -0.1512296   -1.7721232 
H     2.3758704   -1.9871534   -2.2036526 
C     3.1954470    0.9900625   -0.7552510 
O     4.0853821    0.9879721    0.3114375 
O     2.2935474    2.0493751   -0.8616868 
H     1.6072345    1.9084823   -1.5880559 
C     3.2448792    0.3464131   -3.2480573 
H     4.2593070   -0.6024659   -1.5803964 
C     3.8643449   -0.6647695   -4.1942570 
H     3.8429460    1.2826785   -3.3237291 
H     2.2178211    0.6218804   -3.5652992 
C     3.2509059   -1.4081743   -5.1357969 
C     1.9457344   -1.4557966   -5.5110288 
C     1.5867785   -2.3096783   -6.5135312 
C     2.5259094   -3.0916981   -7.1240910 
C     3.8303454   -3.0251907   -6.7378033 
C     4.1609653   -2.1757126   -5.7430415 
H     1.1918937   -0.8374379   -5.0367913 
H     0.5465366   -2.3704781   -6.8275393 
H     2.2314462   -3.7700744   -7.9219233 
H     4.5889162   -3.6376694   -7.2144281 
N     5.4565234   -1.9557193   -5.2061614 
C     5.1769352   -0.9628746   -4.2128842 
H     6.3679666   -2.3993735   -5.4680876 
H     5.9299384   -0.5147423   -3.5667900 
