48
Energy =
C    -0.8711879    6.3994654   -2.9492221 
C    -0.4834042    5.3666668   -2.1566178 
C    -0.6070113    7.6804303   -2.5799741 
C     0.0445840    7.9199086   -1.4201369 
C     0.4365925    6.8916551   -0.6259843 
C     0.1767461    5.6045440   -0.9900364 
H    -0.7000569    4.3467839   -2.4655640 
H     0.2489955    8.9467099   -1.1365689 
H     0.9584826    7.1095836    0.3018595 
H    -1.3911046    6.1991633   -3.8802702 
C     0.6234290    4.4557953   -0.1021277 
C     1.9925718    3.8221718   -0.4906092 
H    -0.1639584    3.6684651   -0.0890014 
H     0.6888615    4.8144049    0.9494110 
C     1.8764032    2.6999374   -1.5139205 
O    -0.9948866    8.7660535   -3.3711886 
H    -1.4610994    8.5039407   -4.2328154 
O     1.0506896    2.8213996   -2.6223432 
N     2.9683209    4.8347507   -0.9198026 
H     2.3997543    3.3296518    0.4219085 
H     2.7151041    5.2019615   -1.8693367 
H     2.9904461    5.6361899   -0.2497429 
N     2.4974327    1.4326157   -1.2778372 
C     3.9237645    1.2262187   -1.6187209 
H     1.9367987    0.6995328   -0.7907072 
C     4.6668222    2.4797256   -2.1076308 
O     5.7083222    2.9879361   -1.3404565 
O     4.3644378    3.1032139   -3.3201922 
H     3.5173546    2.7264632   -3.7230315 
C     4.0075093    0.0660017   -2.6317922 
H     4.4559998    0.9160685   -0.6912289 
C     5.4392259   -0.3279521   -2.9219499 
H     3.4938041    0.3513753   -3.5767713 
H     3.4521403   -0.8142454   -2.2421263 
C     6.1962458   -1.1866737   -2.2211781 
C     5.8863753   -1.9278035   -1.1262700 
C     6.8532469   -2.7267918   -0.5901293 
C     8.1015197   -2.7695472   -1.1472656 
C     8.3909556   -2.0124780   -2.2436303 
C     7.4167595   -1.2326736   -2.7575903 
H     4.8983263   -1.8898991   -0.6785956 
H     6.6315435   -3.3300661    0.2866688 
H     8.8677915   -3.4059591   -0.7121619 
H     9.3776930   -2.0289566   -2.6936036 
N     7.5139762   -0.3614209   -3.8754291 
C     6.1913464    0.1935374   -3.9071904 
H     8.3274084   -0.1816093   -4.5075050 
H     5.8599239    0.9665041   -4.6004581 
