48
 energy: -8.895069954460 gnorm: 0.000943935608 xtb: 6.6.0 (2ccbbd7)
C           -4.29674389392290        2.65861534583764        0.65954266992967
C           -3.04873504930448        3.12334452067016        0.31638662442667
C           -5.08789809014189        1.98863639577717       -0.27477995073912
C           -4.57864286796103        1.80448845932936       -1.56028874438447
C           -3.33037722940754        2.27235448065124       -1.89595016224051
C           -2.54868984764041        2.94132936503768       -0.96554538206070
H           -2.44480698229380        3.63333022505958        1.04727246061300
H           -5.18627430587836        1.28577742841035       -2.28018604724839
H           -2.94554096509841        2.11940593381974       -2.88974807362047
H           -4.67589133217785        2.80700758609894        1.65497679256615
C           -1.17077539225328        3.40319376334348       -1.32579871449433
C           -0.15414561352810        2.25920378615081       -1.37916126116727
H           -0.82602203551856        4.15032622928842       -0.60502641607739
H           -1.19401651772022        3.91728789973071       -2.29271488133594
C            1.17647061531509        2.74845938797711       -1.86211895623606
O           -6.34522494194724        1.50785959107593        0.04027350561476
H           -6.56003672830608        1.72029407358428        0.97463902852027
O            1.23017654756220        3.75510952265861       -2.78275835484871
N           -0.01887262457339        1.58867171979626       -0.09069370572784
H           -0.50531649968799        1.50752311716386       -2.10327550565531
H            0.36708436202800        2.24011349998333        0.57961443455952
H           -0.92781327096362        1.30948279051684        0.25415192224344
N            2.33154979747040        2.14953403260162       -1.37322938068805
C            3.58533494890352        2.17317887141661       -2.13409464080394
H            2.20461006561838        1.28765128745152       -0.83742547223957
C            4.10638759917348        3.56188154204056       -2.27263413510745
O            5.55526532353537        3.74011368071975       -2.12116442461803
O            3.27055381206123        4.58176657088920       -2.58364400514795
H            2.23833403935315        4.20598552960062       -2.70714564046906
C            3.41396629006963        1.53853723747370       -3.50948423062550
H            4.33122829936944        1.59509826475553       -1.56906515096543
C            4.66028532478801        1.49178021364749       -4.33560042312947
H            2.65221407028717        2.10479697004394       -4.05498246258966
H            3.01085266016705        0.52678922299791       -3.39878322716985
C            5.89757822292551        2.10794044406843       -4.10937343480350
C            6.46695015065658        2.92909256410795       -2.99065060520636
C            7.83114170698223        3.47615949543167       -3.23128617321208
C            8.53544301784645        3.16578097575594       -4.34459033454452
C            8.00868770691128        2.33274698982568       -5.34828853281437
C            6.71194077991664        1.82960996448686       -5.22587787229876
H            6.09251936560818        2.79880274214157       -1.76360305138332
H            8.24542341073688        4.14131311946444       -2.49417677321112
H            9.52465834871268        3.57256739422500       -4.47519899388996
H            8.58274929574822        2.09669006018556       -6.22557893956889
N            5.97509246756305        1.04456427435516       -6.10412633080651
C            4.74119111304096        0.84981332765206       -5.56871214037390
H            6.31480995471849        0.72078088388274       -7.01172074473821
H            3.94360556413204        0.29897737479426       -6.04073456138919
