48
Energy =
C     1.0134953   -5.0227815    0.7459096 
C     0.8680766   -3.7011625    0.4769058 
C     1.4235506   -5.4279020    1.9775311 
C     1.6844134   -4.5058613    2.9321796 
C     1.5417042   -3.1821060    2.6683056 
C     1.1292568   -2.7721171    1.4380383 
H     0.5475755   -3.3917783   -0.5152841 
H     2.0120708   -4.8426822    3.9096213 
H     1.7650698   -2.4569134    3.4464269 
H     0.8045251   -5.7537145   -0.0278849 
C     1.0047672   -1.2987223    1.1198004 
C     2.2090772   -0.7951359    0.2905621 
H     0.8980484   -0.6893512    2.0451097 
H     0.0615608   -1.1356598    0.5500640 
C     1.9343040    0.5447723   -0.3670095 
O     1.5880804   -6.7819070    2.2866567 
H     1.3561471   -7.4095560    1.5246367 
O     1.0095633    1.4231101    0.1829463 
N     3.4248965   -0.7285685    1.1191874 
H     2.3713491   -1.5020150   -0.5487296 
H     3.2409910   -0.1557969    1.9778155 
H     3.6903792   -1.6931953    1.4294175 
N     2.4692500    0.8440623   -1.6620610 
C     3.9201928    1.1024800   -1.7565687 
H     1.8433954    0.7590733   -2.4940725 
C     4.1981473    2.5770498   -2.0474589 
O     5.2573708    2.9284016   -2.8764457 
O     3.4794823    3.5993086   -1.4301034 
H     2.7263805    3.2384078   -0.8598599 
C     4.5322475    0.1775374   -2.8375942 
H     4.4327638    0.9085712   -0.7840887 
C     4.4253151   -1.2846510   -2.4641570 
H     5.6115899    0.4198260   -2.9733156 
H     4.0549859    0.3750612   -3.8211756 
C     3.5086603   -2.1710316   -2.8898846 
C     2.4737980   -2.0121892   -3.7552151 
C     1.6498883   -3.0752700   -3.9833529 
C     1.8664306   -4.2665138   -3.3480439 
C     2.9096893   -4.4028638   -2.4817661 
C     3.7145687   -3.3396221   -2.2778470 
H     2.2920275   -1.0669702   -4.2559027 
H     0.8154119   -2.9745014   -4.6738994 
H     1.2045165   -5.1087845   -3.5346431 
H     3.0920132   -5.3380311   -1.9628378 
N     4.8197998   -3.2614863   -1.3905740 
C     5.2201216   -1.8968244   -1.5685494 
H     5.2247729   -4.0003096   -0.7706143 
H     6.0322059   -1.4185633   -1.0246197 
