48
Energy =
C     4.4778892   -3.8083396    3.3204806 
C     4.4222367   -2.8198670    2.3920556 
C     3.6564197   -3.7760849    4.4037813 
C     2.7834218   -2.7536427    4.5501096 
C     2.7235326   -1.7625941    3.6251437 
C     3.5462669   -1.7880765    2.5409044 
H     5.0822664   -2.8624343    1.5300398 
H     2.1321446   -2.7397244    5.4172637 
H     2.0125056   -0.9507877    3.7591181 
H     5.1798416   -4.6254057    3.1942018 
C     3.4661915   -0.6913512    1.5022651 
C     2.2696552   -0.8945856    0.5423781 
H     4.4181991   -0.6297557    0.9332515 
H     3.3640742    0.2873180    2.0287410 
C     1.9410219    0.3802592   -0.2211415 
O     3.6880758   -4.7792902    5.3779448 
H     4.3704061   -5.5077026    5.1989601 
O     0.8367407    1.1242275    0.1720342 
N     2.5201651   -2.0279575   -0.3674498 
H     1.3488481   -1.1020226    1.1428472 
H     3.4440966   -1.9132524   -0.8475901 
H     2.5579033   -2.9175054    0.1837354 
N     2.5040271    0.6312071   -1.5130393 
C     3.8283160    1.2758492   -1.5652566 
H     1.9830566    0.2721612   -2.3426670 
C     3.7131372    2.7892724   -1.6653794 
O     3.8599976    3.5682535   -0.5221342 
O     3.5128913    3.4170717   -2.8958881 
H     3.3562213    2.6568543   -3.7386166 
C     4.6800137    0.6811685   -2.7096756 
H     4.3859183    1.0767524   -0.6251924 
C     3.9768739    0.6658893   -4.0653251 
H     4.9787055   -0.3395211   -2.3998025 
H     5.6192373    1.2702190   -2.8129098 
C     3.9659446   -0.3639889   -4.9262605 
C     4.5453703   -1.5923028   -4.8117582 
C     4.3991794   -2.4839548   -5.8317549 
C     3.6886660   -2.1443717   -6.9450392 
C     3.1237987   -0.9105196   -7.0438731 
C     3.2796700   -0.0417724   -6.0206950 
H     5.1211251   -1.8790559   -3.9394855 
H     4.8524400   -3.4700183   -5.7601683 
H     3.5758849   -2.8593109   -7.7565381 
H     2.5595079   -0.6237251   -7.9254063 
N     2.7648230    1.2790988   -5.9773586 
C     3.1799965    1.8201940   -4.6769625 
H     2.2104200    1.7495925   -6.7309407 
H     2.7257308    2.8240256   -4.8317198 
