48
 energy: -9.068269337608 gnorm: 0.000725267149 xtb: 6.6.0 (2ccbbd7)
C           -2.46464240930290        1.74665718130413        2.82481774329524
C           -1.34870008166930        2.42838453679710        2.39592460087813
C           -2.71893472927223        0.44501222001701        2.38725406706220
C           -1.81288933063523       -0.14028123522922        1.50173559514422
C           -0.70887405244500        0.55413096555955        1.08579501980549
C           -0.44566635715161        1.83689520565823        1.52212097954811
H           -1.16781255939447        3.43363738856679        2.73601257402383
H           -1.99789932011029       -1.14051267012973        1.15387504897595
H            0.13234875859692        0.10889471763093        0.30691950909582
H           -3.15602984095319        2.21336487528512        3.50327923302161
C            0.76052316404512        2.58254031450918        1.03092581510766
C            2.01704634495661        1.71277265955946        0.84268751243199
H            0.98708660927182        3.39165094261174        1.73228968296698
H            0.52284817778352        3.07122945928365        0.08145832965313
C            1.90492181208510        0.84658880989668       -0.38514462299212
O           -3.82828825355590       -0.26649668723635        2.80181944902181
H           -4.36317927323562        0.27563183837789        3.42125558270075
O            0.96922866176379       -0.15702141381625       -0.39995130354251
N            3.22698916730765        2.52756176551693        0.83989372558091
H            2.09904254852609        1.03360920296132        1.70597110180006
H            3.24912307158572        3.08260690041771       -0.01036269527497
H            3.25095807011651        3.16369054607404        1.62574124298881
N            2.67926106808626        1.04060304245530       -1.53592663218166
C            4.12114430007817        1.31394651409824       -1.53632213629771
H            2.45978628791425        0.41619809559827       -2.30249547545221
C            4.39183880807115        2.75690176266866       -1.92150170575588
O            5.54783666191569        3.10635840345188       -2.02766468958136
O            3.31104766224883        3.55869525689424       -2.10490812953616
H            2.48139576530015        3.02544847404022       -2.08368625983524
C            4.86905433983442        0.36406054057204       -2.47396997332101
H            4.48143580226298        1.17004107419278       -0.50736119155628
C            4.37744185785687        0.46748107241667       -3.87667200882275
H            4.76563029327764       -0.66794721085072       -2.12500406420590
H            5.93878722199150        0.59773548378577       -2.45118036384373
C            3.38918330838858       -0.35396936470312       -4.49778848195360
C            2.67662133333012       -1.48677837831142       -4.06583492815718
C            1.74424204750821       -2.03163865939794       -4.90477780643762
C            1.49510539485032       -1.48062047606211       -6.17249377977079
C            2.17492510682705       -0.37767527863166       -6.61221751331466
C            3.13263040792260        0.19834547004809       -5.76792715194480
H            2.87142996032084       -1.91210509631731       -3.09684065471452
H            1.18910107009373       -2.89948130907710       -4.58891194418989
H            0.75276997665159       -1.93463049583291       -6.80802804247644
H            1.98537891361193        0.05469374212668       -7.57833596821500
N            3.93680503780215        1.31660981218501       -5.90706156021524
C            4.66844211541808        1.47997768159181       -4.75699196324345
H            3.92693853856687        1.94644620150085       -6.71134356969346
H            5.32372084421150        2.31133490010098       -4.54775749104798
