48
Energy =
C     2.5878400   -0.8971736   -5.7060433 
C     2.5265365    0.4142889   -5.3637970 
C     1.5876713   -1.7450154   -5.3468677 
C     0.5266283   -1.2710397   -4.6554562 
C     0.4597219    0.0397414   -4.3106586 
C     1.4686849    0.8899982   -4.6495512 
H     3.3352121    1.0781799   -5.6564758 
H    -0.2650166   -1.9562360   -4.3745980 
H    -0.3935760    0.3968544   -3.7400233 
H     3.4408161   -1.2669438   -6.2640552 
C     1.4248097    2.3427040   -4.2167262 
C     2.1761308    2.6456782   -2.8910092 
H     0.3658935    2.6682208   -4.1068062 
H     1.8431633    2.9799037   -5.0263630 
C     1.5757023    1.9453871   -1.6764825 
O     1.6262001   -3.1043878   -5.6758151 
H     2.4508600   -3.3778976   -6.1978587 
O     0.9733555    2.6190017   -0.8248280 
N     3.6190210    2.3874998   -3.0164345 
H     2.0458672    3.7355989   -2.6882181 
H     3.7804668    1.3697161   -3.1806557 
H     3.9972883    2.9090160   -3.8403090 
N     1.8099740    0.5436258   -1.4247589 
C     1.7132201    0.1211692   -0.0156992 
H     2.0522701   -0.1139626   -2.1956170 
C     1.4013628    1.3267086    0.8651725 
O     1.6368381    1.2867532    2.2360605 
O     0.8926659    2.3346129    0.3545277 
H     0.1957172    2.2014253   -0.3502039 
C     3.0164162   -0.5956554    0.3977681 
H     0.8515738   -0.5716977    0.1010966 
C     3.2162043   -1.8657423   -0.4027328 
H     2.9732133   -0.8604197    1.4785481 
H     3.8767813    0.0968319    0.2776733 
C     3.9682935   -2.0208025   -1.5056976 
C     4.7945385   -1.1418639   -2.1297447 
C     5.4166686   -1.5376811   -3.2772206 
C     5.2046748   -2.7915159   -3.7800159 
C     4.3728525   -3.6581878   -3.1353758 
C     3.7756923   -3.2456272   -1.9977155 
H     4.9628154   -0.1458257   -1.7335173 
H     6.0837946   -0.8524814   -3.7944838 
H     5.7006997   -3.0999551   -4.6965856 
H     4.1857034   -4.6535601   -3.5238135 
N     2.8604619   -3.9771082   -1.1956477 
C     2.5421267   -3.0093739   -0.1886413 
H     2.5140311   -4.9570552   -1.3093187 
H     1.8142148   -3.1673007    0.6032211 
