48
Energy =
C     0.8082785    5.3629049   -1.1855240 
C     1.3336271    4.7733024   -0.0816856 
C    -0.0950809    4.6960285   -1.9530161 
C    -0.4651992    3.4414795   -1.6103598 
C     0.0608448    2.8452991   -0.5111199 
C     0.9668111    3.5076716    0.2607113 
H     2.0525748    5.3205518    0.5222673 
H    -1.1853889    2.9191581   -2.2305991 
H    -0.2411822    1.8308985   -0.2587280 
H     1.1123707    6.3689714   -1.4531421 
C     1.5671534    2.8326146    1.4780610 
C     2.8669089    2.0440059    1.1769852 
H     0.8188822    2.1304847    1.9117199 
H     1.7606487    3.5855019    2.2730803 
C     2.7002072    1.0483038    0.0366886 
O    -0.6592139    5.2749056   -3.0948436 
H    -0.3009078    6.1996371   -3.3081212 
O     1.8574079   -0.0387384    0.2318185 
N     4.0050946    2.9580492    0.9735843 
H     3.0883573    1.4073453    2.0656995 
H     3.8038277    3.6092641    0.1765548 
H     4.1346666    3.5535160    1.8252546 
N     3.0394848    1.4053230   -1.3087950 
C     4.4566835    1.3306553   -1.7028216 
H     2.2822249    1.7017602   -1.9636264 
C     4.8909794    2.6456367   -2.3343550 
O     4.3237200    3.0407613   -3.5394733 
O     5.8316681    3.4841572   -1.7337335 
H     6.1457330    3.1439044   -0.8366545 
C     4.6523404    0.1628989   -2.6909853 
H     5.1086162    1.1604546   -0.8151637 
C     4.4070413   -1.1754669   -2.0305919 
H     5.6927448    0.1789038   -3.0876085 
H     3.9859308    0.2941574   -3.5721562 
C     3.2621810   -1.8781525   -2.0183569 
C     2.0624962   -1.6044820   -2.5932783 
C     1.0441373   -2.4962316   -2.4249334 
C     1.2372370   -3.6352430   -1.6933140 
C     2.4497135   -3.8886281   -1.1240409 
C     3.4414159   -2.9911925   -1.3046814 
H     1.9022731   -0.6959980   -3.1637776 
H     0.0719703   -2.2961997   -2.8681432 
H     0.4192312   -4.3382858   -1.5591544 
H     2.6181298   -4.7843248   -0.5362272 
N     4.7670956   -3.0637647   -0.7978412 
C     5.3229115   -1.8458374   -1.3092858 
H     5.2129118   -3.8085756   -0.2147346 
H     6.3421139   -1.5127770   -1.1279537 
