48
Energy =
C     2.3391780   -2.5297506   -2.9782250 
C     1.6523901   -2.0280798   -1.9203840 
C     1.9384620   -2.2520260   -4.2469187 
C     0.8435584   -1.4852634   -4.4489280 
C     0.1488655   -0.9874754   -3.3955793 
C     0.5538788   -1.2486697   -2.1217650 
H     1.9901400   -2.2513452   -0.9108059 
H     0.5295552   -1.2747731   -5.4651940 
H    -0.7296900   -0.3756309   -3.5804030 
H     3.2121301   -3.1502585   -2.8072154 
C    -0.2045947   -0.6773056   -0.9397013 
C     0.2463967    0.7511298   -0.5428606 
H    -0.0806245   -1.3481648   -0.0591839 
H    -1.2943682   -0.6762337   -1.1595403 
C     1.7269030    0.8211813   -0.1932166 
O     2.6335916   -2.7393751   -5.3578451 
H     3.4415946   -3.3054399   -5.1224961 
O     2.2408188   -0.0559926    0.7570258 
N    -0.1352248    1.7308795   -1.5772465 
H    -0.2746368    1.0237432    0.4036853 
H     0.4290814    1.5776754   -2.4458680 
H    -1.1466851    1.6238532   -1.8263283 
N     2.5052701    1.9703541   -0.5515878 
C     3.9015773    1.7333677   -0.9548315 
H     2.0678790    2.9198991   -0.4982434 
C     4.7376384    2.9978601   -0.7784748 
O     5.1799651    3.7144628   -1.8855774 
O     5.0567304    3.4742490    0.4911526 
H     4.5961771    2.9401329    1.2145048 
C     3.9144421    1.1981501   -2.4039564 
H     4.3672123    0.9839248   -0.2731189 
C     5.2830979    0.6974870   -2.8097662 
H     3.5694309    1.9987249   -3.0971888 
H     3.1859110    0.3668150   -2.5105702 
C     5.8564712   -0.4566234   -2.4362718 
C     5.3859390   -1.4381783   -1.6252957 
C     6.1790297   -2.5228027   -1.3929345 
C     7.4192048   -2.6061003   -1.9635471 
C     7.8748542   -1.6028061   -2.7668574 
C     7.0696842   -0.5416468   -2.9835111 
H     4.4082903   -1.3654355   -1.1585104 
H     5.8263327   -3.3215044   -0.7443950 
H     8.0479951   -3.4717286   -1.7698669 
H     8.8598331   -1.6483415   -3.2192527 
N     7.3570883    0.6106466   -3.7627141 
C     6.1500003    1.3680529   -3.5889398 
H     8.2139235    0.8409607   -4.3167070 
H     5.9770015    2.3656449   -3.9943427 
