48
Energy =
C    -2.7782911    0.4233022   -1.3301080 
C    -2.1562861    1.4259907   -0.6600138 
C    -2.4058302    0.1168290   -2.6014610 
C    -1.4151682    0.8195749   -3.1954155 
C    -0.7880335    1.8215360   -2.5294247 
C    -1.1538788    2.1297960   -1.2547355 
H    -2.4623164    1.6553568    0.3573147 
H    -1.1288954    0.5665776   -4.2104909 
H     0.0130059    2.3672787   -3.0226447 
H    -3.5715940   -0.1347502   -0.8447204 
C    -0.4372078    3.2283559   -0.4985190 
C     0.4592673    2.6753011    0.6331162 
H    -1.1924201    3.9200450   -0.0660865 
H     0.1819495    3.8395328   -1.1931549 
C     1.4514605    1.6374900    0.1355785 
O    -3.0209471   -0.9145508   -3.3180310 
H    -3.7543384   -1.3916790   -2.8048560 
O     1.3651264    0.3357403    0.6284864 
N     1.1446420    3.7901662    1.3096378 
H    -0.1739792    2.1357210    1.3778331 
H     1.6538203    4.3900110    0.6169961 
H     0.4410098    4.3985831    1.7916837 
N     2.3831339    1.9705302   -0.9139649 
C     3.1149620    0.8003827   -1.4551252 
H     3.0711617    2.6102588   -0.4536562 
C     4.3196505    1.2535975   -2.2823449 
O     4.1807632    2.3111628   -3.1738559 
O     5.5454422    0.5884979   -2.2238464 
H     5.5293475   -0.1940801   -1.5859202 
C     2.1637803   -0.0437154   -2.3342071 
H     3.5030245    0.1788067   -0.6147794 
C     2.8105242   -1.3339399   -2.7858400 
H     1.8518710    0.5516129   -3.2203116 
H     1.2325006   -0.2841037   -1.7769545 
C     2.9078292   -2.4740008   -2.0840115 
C     2.4467845   -2.7755741   -0.8430250 
C     2.6914011   -4.0218533   -0.3463457 
C     3.3873339   -4.9367732   -1.0872438 
C     3.8442349   -4.6101311   -2.3295448 
C     3.5873007   -3.3716975   -2.7999022 
H     1.8994060   -2.0504002   -0.2478742 
H     2.3332114   -4.2867978    0.6458701 
H     3.5802733   -5.9273971   -0.6827737 
H     4.4030171   -5.3218967   -2.9280401 
N     3.9857099   -2.8286862   -4.0505003 
C     3.4491592   -1.5022784   -3.9575967 
H     4.5207720   -3.2761970   -4.8303445 
H     3.5784075   -0.7314257   -4.7155981 
