48
Energy =
C    -1.1094883   -0.6733312    1.1952991 
C    -0.4835876    0.4656083    0.8056716 
C    -1.2355365   -0.9656277    2.5172048 
C    -0.7292263   -0.1170950    3.4407493 
C    -0.1001762    1.0225861    3.0568198 
C     0.0189485    1.3256380    1.7350954 
H    -0.3783287    0.6796663   -0.2552056 
H    -0.8305476   -0.3653626    4.4918262 
H     0.3083363    1.6864232    3.8142852 
H    -1.5043172   -1.3517465    0.4468376 
C     0.7437439    2.5829403    1.3038100 
C     2.2566047    2.3322391    1.1147758 
H     0.5961796    3.3763049    2.0701336 
H     0.2942051    2.9808542    0.3673604 
C     2.5442416    1.3312766    0.0025739 
O    -1.8784316   -2.1285880    2.9533513 
H    -2.2139979   -2.7221753    2.2024016 
O     3.1140915    0.1057808    0.3312167 
N     2.9530246    3.6106583    0.8836816 
H     2.6634854    1.8598034    2.0430485 
H     2.4431887    4.1906767    0.1739874 
H     2.9607410    4.1669118    1.7718626 
N     2.3769220    1.6674061   -1.3881459 
C     3.6963852    1.8334444   -2.0483083 
H     1.8121359    2.5447118   -1.4471178 
C     3.7256794    3.0519262   -2.9742951 
O     3.3648216    2.9253791   -4.3115412 
O     4.0678677    4.3165536   -2.4962697 
H     4.2993265    4.3089168   -1.5131073 
C     4.0096214    0.5264089   -2.8076583 
H     4.5121919    2.0162671   -1.3052214 
C     5.4359056    0.4977154   -3.3081642 
H     3.2972818    0.4050739   -3.6551559 
H     3.8338876   -0.3468676   -2.1412330 
C     6.5201845    0.1298091   -2.6091948 
C     6.6193372   -0.3255100   -1.3336703 
C     7.8584087   -0.6224165   -0.8473568 
C     8.9665820   -0.4578412   -1.6320163 
C     8.8423436    0.0061176   -2.9082126 
C     7.6055205    0.2895875   -3.3677883 
H     5.7405444   -0.4516567   -0.7054968 
H     7.9646152   -0.9896707    0.1707427 
H     9.9507826   -0.6944668   -1.2356003 
H     9.7115881    0.1487487   -3.5412255 
N     7.2598812    0.7990910   -4.6483447 
C     5.8345247    0.9143424   -4.5231154 
H     7.8780268    1.0245342   -5.4614099 
H     5.1731762    1.3237994   -5.2881151 
