48
Energy =
C    -0.1625986   -0.2506768    3.4047037 
C     0.0726514    0.9832438    2.8837575 
C    -0.0183572   -1.3620189    2.6292470 
C     0.3565469   -1.2305078    1.3359744 
C     0.5879974    0.0020282    0.8235390 
C     0.4644529    1.1123067    1.5871120 
H    -0.0583176    1.8610884    3.5107759 
H     0.4681104   -2.1162471    0.7204662 
H     0.9368231    0.2311245   -0.2776372 
H    -0.4698513   -0.3462936    4.4405463 
C     0.6879818    2.4793158    0.9546372 
C     1.9022647    2.5340920   -0.0242592 
H     0.8416648    3.2313740    1.7597664 
H    -0.2387932    2.7723211    0.4128111 
C     1.6653884    1.7637506   -1.3466013 
O    -0.2475100   -2.6448182    3.1363099 
H    -0.5376042   -2.6578572    4.1078580 
O     1.2600964    0.4293933   -1.3107675 
N     2.2639856    3.9416822   -0.2673427 
H     2.7679834    2.0195759    0.4580259 
H     1.4144847    4.4858573   -0.5569356 
H     2.6117359    4.3764169    0.6212409 
N     2.0800862    2.2922442   -2.6163758 
C     3.5562569    2.2925623   -2.7499056 
H     1.6799632    3.2547695   -2.6958406 
C     4.0342797    3.3966814   -3.6949599 
O     4.4244601    3.0981394   -4.9962464 
O     4.0917093    4.7252745   -3.2757374 
H     3.7489502    4.8454158   -2.3333462 
C     4.0036894    0.8869607   -3.2208966 
H     4.0501421    2.5339613   -1.7798461 
C     5.4841804    0.6734471   -3.0064579 
H     3.7378659    0.7447664   -4.2934933 
H     3.4378699    0.0972017   -2.6801597 
C     6.0728730    0.2638498   -1.8727618 
C     5.5189456   -0.0895382   -0.6839450 
C     6.3497344   -0.4638874    0.3308132 
C     7.7049260   -0.4753118    0.1456299 
C     8.2377969   -0.1125987   -1.0560584 
C     7.3951193    0.2502131   -2.0456865 
H     4.4425082   -0.0822509   -0.5350815 
H     5.9325310   -0.7565558    1.2915909 
H     8.3606219   -0.7744629    0.9596864 
H     9.3104948   -0.1123939   -1.2180550 
N     7.7401845    0.6752653   -3.3566987 
C     6.4425823    0.9382993   -3.9118426 
H     8.6841513    0.7688573   -3.7976336 
H     6.2619581    1.3323487   -4.9131666 
