48
Energy =
C     3.5898248    6.2423387    0.5367247 
C     3.1950251    4.9590444    0.6556947 
C     3.5361479    6.9017086   -0.6443829 
C     3.0830920    6.3078991   -1.7633283 
C     2.6567346    5.0321911   -1.7764379 
C     2.6781059    4.1477688   -0.5220056 
H     3.2755490    4.4694667    1.6213521 
H     3.0629819    6.8863339   -2.6802359 
H     2.2872886    4.6235037   -2.7109571 
H     3.9626013    6.7569280    1.4161165 
C     1.2255502    3.6885823   -0.2018739 
C     0.6579834    2.5723444   -1.1352222 
H     0.5565589    4.5765222   -0.2347141 
H     1.1746259    3.3042728    0.8414312 
C     1.3298093    1.2170075   -0.9140563 
O     3.9452697    8.2380904   -0.7363893 
H     4.3042759    8.6298127    0.1276813 
O     1.4523971    0.7048681    0.3758263 
N    -0.7951501    2.4534611   -0.9371118 
H     0.8422615    2.8413823   -2.1981833 
H    -0.9892788    2.1863141    0.0585598 
H    -1.2604463    3.3726720   -1.1201852 
N     2.1112977    0.6175901   -1.9622746 
C     3.5552739    0.9329950   -1.8163665 
H     1.9753852   -0.4132957   -1.8484363 
C     3.7945924    2.4431409   -1.6742814 
O     4.2932664    3.1720159   -2.7501927 
O     3.4820166    3.0081334   -0.6188613 
H     3.4372493    2.4339702    0.1609285 
C     4.3523912    0.2932760   -2.9844069 
H     3.9410678    0.4725142   -0.8754976 
C     3.7405228    0.4340682   -4.3738892 
H     4.4530547   -0.7902231   -2.7596701 
H     5.3802376    0.7196900   -3.0145309 
C     4.0566199   -0.3222662   -5.4394385 
C     4.9270940   -1.3613485   -5.5398332 
C     5.0762045   -1.9690076   -6.7518459 
C     4.3651551   -1.5330091   -7.8351076 
C     3.5018515   -0.4853473   -7.7131928 
C     3.3697088    0.0974997   -6.5032037 
H     5.4989314   -1.7064861   -4.6841942 
H     5.7660648   -2.8026330   -6.8576829 
H     4.4909459   -2.0207455   -8.7983233 
H     2.9344496   -0.1226110   -8.5634053 
N     2.5448330    1.2023183   -6.1714298 
C     2.8522571    1.3647488   -4.7804623 
H     1.8893897    1.7500573   -6.7735932 
H     2.4243259    2.1432580   -4.1584447 
