48
Energy =
C    -2.7135926    4.1436172   -1.1638276 
C    -1.3736085    4.0630587   -1.3707742 
C    -3.5592135    4.3056225   -2.2153981 
C    -3.0586491    4.3847010   -3.4685245 
C    -1.7211493    4.3019009   -3.6821759 
C    -0.8672365    4.1386667   -2.6331961 
H    -0.7113467    3.9212536   -0.5168351 
H    -3.7443975    4.5138497   -4.2988310 
H    -1.3438990    4.3668855   -4.6993141 
H    -3.1084470    4.0729474   -0.1556444 
C     0.6282370    4.0444488   -2.8763700 
C     1.1859999    2.5940096   -2.9894011 
H     1.1751730    4.5962020   -2.0748812 
H     0.8871142    4.5915157   -3.8090493 
C     1.4704015    1.9576402   -1.6351350 
O    -4.9433265    4.3937671   -2.0364244 
H    -5.2408686    4.3121092   -1.0702598 
O     0.4575693    1.8686869   -0.6882991 
N     0.3290964    1.7359613   -3.8324654 
H     2.1958581    2.6624142   -3.4612475 
H    -0.5730001    1.5425479   -3.3307220 
H     0.0985145    2.2236837   -4.7289976 
N     2.5902936    1.0785671   -1.4863378 
C     3.9116460    1.6126244   -1.0807289 
H     2.4621632    0.0917664   -1.7995464 
C     3.9888392    3.1392900   -0.9164883 
O     3.5167911    3.9826696   -1.9147714 
O     4.5932333    3.7287131    0.1914170 
H     4.9197179    3.0519780    0.8629279 
C     5.0090837    1.0708875   -2.0255750 
H     4.1206887    1.1913423   -0.0745187 
C     4.7818091    1.4406091   -3.4774910 
H     5.0450712   -0.0375573   -1.9385390 
H     6.0065493    1.4338131   -1.6938219 
C     5.2353019    2.5297202   -4.1213422 
C     6.0018836    3.5556863   -3.6704086 
C     6.3242750    4.5562382   -4.5394989 
C     5.8833178    4.5165232   -5.8331149 
C     5.1133074    3.4777313   -6.2641739 
C     4.8060676    2.5013855   -5.3845815 
H     6.3362107    3.6007610   -2.6383825 
H     6.9270843    5.3936628   -4.1971734 
H     6.1430795    5.3191768   -6.5183802 
H     4.7528049    3.4326125   -7.2860422 
N     4.0168411    1.3461381   -5.6285481 
C     4.0537736    0.7126200   -4.3435840 
H     3.5352324    1.0443499   -6.5063442 
H     3.5504679   -0.2213421   -4.1057584 
