48
Energy =
C     1.1953529    5.3173554   -2.6582308 
C     0.4732052    4.1786736   -2.5019456 
C     1.2913278    6.2114511   -1.6398184 
C     0.6694211    5.9555412   -0.4667774 
C    -0.0405501    4.8109677   -0.2991364 
C    -0.1428685    3.9132801   -1.3180509 
H     0.4200947    3.4658186   -3.3224324 
H     0.7589181    6.6734117    0.3404726 
H    -0.5162493    4.6167770    0.6578320 
H     1.7140292    5.4994572   -3.5923682 
C    -0.9090056    2.6200666   -1.1256761 
C     0.0016507    1.3902788   -0.8715306 
H    -1.5410048    2.4338715   -2.0237544 
H    -1.6208823    2.7194729   -0.2775938 
C     0.7793802    0.9723327   -2.1115787 
O     2.0182822    7.3998847   -1.7722924 
H     2.5276516    7.4730033   -2.6459192 
O     0.0820383    0.8433373   -3.3069444 
N     0.8757161    1.6118388    0.2953548 
H    -0.6573563    0.5186852   -0.6571352 
H     1.5802803    2.3573984    0.0717661 
H     0.3100882    1.9603396    1.1036759 
N     1.9832457    0.2096854   -1.9719959 
C     3.2923519    0.8483587   -2.2319094 
H     1.8906823   -0.7936020   -1.7039179 
C     3.2358943    2.3322489   -2.5811601 
O     3.5052215    3.2794295   -1.6023840 
O     2.9598063    2.7636502   -3.8773421 
H     2.7064937    1.8780183   -4.5567179 
C     4.0467018    0.0498590   -3.3126434 
H     3.8861587    0.8028878   -1.2913058 
C     3.2155995   -0.1761908   -4.5715791 
H     4.3638847   -0.9075283   -2.8565307 
H     4.9760249    0.5917408   -3.5977650 
C     3.0911093   -1.3393987   -5.2321086 
C     3.6170460   -2.5621982   -4.9373033 
C     3.3587137   -3.6063277   -5.7738397 
C     2.5920663   -3.4222291   -6.8863571 
C     2.0828579   -2.1925732   -7.1688194 
C     2.3494856   -1.1703396   -6.3259375 
H     4.2321045   -2.7306199   -4.0615806 
H     3.7656601   -4.5911132   -5.5549421 
H     2.3884798   -4.2587843   -7.5509995 
H     1.4747491   -2.0307785   -8.0531360 
N     1.9095330    0.1687648   -6.4918303 
C     2.4212765    0.8955852   -5.3170689 
H     1.3611347    0.5386822   -7.3050769 
H     2.0241597    1.8896509   -5.6181956 
