48
 energy: -9.280091591890 gnorm: 0.000654299620 xtb: 6.6.0 (2ccbbd7)
C            3.87643127199332        5.64575233136630        3.36302599372799
C            3.18392829515383        4.53478849563510        2.94302258872336
C            4.98569961549460        6.10359072145582        2.65099575683358
C            5.36794555110723        5.40793382966832        1.50451994476640
C            4.67182688632247        4.29817562783299        1.09212594106067
C            3.57354112769023        3.84141967552661        1.80613025175455
H            2.32879016892975        4.19214353082182        3.50003399025541
H            6.21924221185375        5.76199177260932        0.95110195590473
H            4.97912020374020        3.76685545998646        0.20670093233132
H            3.56877786282156        6.17367768144828        4.24779143705386
C            2.80439810092995        2.65129781038603        1.32366976241436
C            1.92925342715742        2.97172132233612        0.10902992671072
H            2.17008558481187        2.25977267374943        2.12398528125309
H            3.50483296866075        1.84745607059054        1.08065803983718
C            1.35512394298386        1.71647613210923       -0.50896329734540
O            5.70555860486450        7.21360388125424        3.05036682405537
H            5.31359572506005        7.59210140583992        3.86679509394046
O            0.26395144484085        1.35389388409098       -0.11691749066240
N            0.83282597494284        3.86716549985102        0.44862260405153
H            2.52743612404108        3.49307344290796       -0.65305104349436
H            0.07849860895672        3.30954949628959        0.84185345182648
H            1.12462439828707        4.55436012363366        1.13311587776760
N            2.04533234510768        1.00646600040040       -1.48467996549400
C            3.51131247276744        0.82939480350686       -1.52071209607940
H            1.56850945828521        0.19291435160794       -1.86786090216242
C            4.27365393248639        2.13596030325694       -1.59437577107641
O            3.76237795123373        3.10427662194925       -2.11174322886703
O            5.53137847790224        2.12784595185746       -1.07783584379099
H            5.76644602514582        1.23802309702807       -0.73212761704554
C            3.92315310370568       -0.09216159182671       -2.67412889873503
H            3.78144650713975        0.34808147277418       -0.56932442059370
C            3.45564236248071        0.37627408579521       -4.01175562249151
H            3.52781935907586       -1.09797923168980       -2.49802704936570
H            5.01265955425272       -0.19588972851507       -2.69397130909723
C            4.02213157546395        1.41906699014947       -4.80501568834935
C            5.09493670066860        2.30479668783055       -4.60226734022392
C            5.38540926115688        3.22051051287581       -5.57447408096244
C            4.63548473234249        3.28371088821508       -6.75983257765975
C            3.58189084650332        2.43864819374694       -6.97659766598240
C            3.26481477586664        1.49693650820531       -5.98976726049965
H            5.62624654407786        2.29360184448567       -3.66671836960132
H            6.19180059604321        3.91847244902510       -5.42139143394880
H            4.88906660415508        4.01905060184900       -7.50533539118708
H            2.99543954063818        2.48650895763637       -7.87650751942474
N            2.27010371895847        0.53915989710241       -5.91083710072490
C            2.38560790965191       -0.12156795666962       -4.71350922478608
H            1.54572584117776        0.39272440354734       -6.61625277923283
H            1.73649233210935       -0.91689097888217       -4.38442641490003
