48
Energy =
C     1.5400778    4.2990032    2.9931747 
C     0.7329160    3.2668895    2.6389768 
C     2.7454799    4.0555749    3.5733239 
C     3.1360068    2.7811816    3.7916545 
C     2.3343482    1.7450948    3.4380651 
C     1.1238316    1.9817624    2.8618520 
H    -0.2211026    3.4773923    2.1624128 
H     4.1039065    2.6072261    4.2458276 
H     2.6722782    0.7256486    3.6054418 
H     1.2223668    5.3181319    2.8016916 
C     0.2331638    0.8321399    2.4375147 
C     0.3203390    0.5744048    0.9150126 
H    -0.8151458    1.0742649    2.7176434 
H     0.4975726   -0.0989201    2.9870899 
C     1.6797973    0.0316920    0.4768394 
O     3.6010704    5.0929705    3.9583118 
H     3.2623408    6.0139968    3.7005845 
O     2.5670236   -0.5153569    1.4033485 
N    -0.7519183   -0.3421706    0.4999969 
H     0.1777746    1.5452677    0.3858588 
H    -0.6737863   -1.2393337    1.0366100 
H    -1.6834503    0.0814689    0.7213491 
N     2.1289829    0.1789356   -0.8791538 
C     3.0454206    1.3360825   -1.0103458 
H     1.2948836    0.2575691   -1.5035874 
C     2.3151466    2.6796086   -1.0388360 
O     2.6381000    3.6458298   -0.0961530 
O     1.3388231    2.9793069   -1.9902372 
H     1.2207314    2.2362714   -2.6613838 
C     3.9721895    1.1581741   -2.2436348 
H     3.7070031    1.3993333   -0.1145295 
C     4.2185159   -0.2826896   -2.6674129 
H     4.9546007    1.6377462   -2.0380636 
H     3.5449539    1.7096298   -3.1108249 
C     4.6693175   -1.3103125   -1.9207254 
C     4.9782937   -1.3703893   -0.5993064 
C     5.4099594   -2.5570665   -0.0826933 
C     5.5342971   -3.6552819   -0.8862562 
C     5.2222088   -3.5748662   -2.2098270 
C     4.7912895   -2.3918017   -2.6956733 
H     4.8641387   -0.5125251    0.0502124 
H     5.6435148   -2.6318803    0.9772285 
H     5.8752895   -4.5988155   -0.4670566 
H     5.3105554   -4.4379464   -2.8612112 
N     4.4166440   -2.1067107   -4.0342966 
C     4.0627431   -0.7228977   -3.9300717 
H     4.4078475   -2.7361453   -4.8696687 
H     3.7267319   -0.1141564   -4.7665361 
