48
Energy =
C    -3.5652157   -0.3408802    1.5716104 
C    -2.2177227   -0.1798381    1.5576954 
C    -4.1581560   -1.2124640    0.7124685 
C    -3.3972059   -1.9170655   -0.1556047 
C    -2.0493760   -1.7595985   -0.1742895 
C    -1.4508403   -0.8915068    0.6867343 
H    -1.7564323    0.5227457    2.2475702 
H    -3.8824902   -2.6079007   -0.8361345 
H    -1.4564566   -2.3314889   -0.8827588 
H    -4.1667959    0.2303195    2.2703666 
C     0.0482762   -0.6943622    0.6581811 
C     0.4504988    0.5975164   -0.0909875 
H     0.5515007   -1.5740938    0.1998537 
H     0.4210758   -0.6422033    1.7062533 
C     1.9360982    0.8654658    0.0613776 
O    -5.5439928   -1.4012255    0.6990687 
H    -6.0420949   -0.8388538    1.3804109 
O     2.3250190    1.7642505    0.8220791 
N     0.0689487    0.5240461   -1.5105400 
H    -0.0627045    1.4697859    0.3814273 
H     0.3656164   -0.3969391   -1.9078357 
H    -0.9732410    0.5756363   -1.5893776 
N     2.9148253    0.0989924   -0.6651355 
C     4.1550734    0.8326937   -0.9792633 
H     2.7346588   -0.8879043   -0.9553896 
C     4.2030808    2.1452403   -0.1959268 
O     5.1725216    3.1010854   -0.4840043 
O     3.3837294    2.3515925    0.7113942 
H     3.1710877    1.6031437    1.3372092 
C     4.2310515    1.0806980   -2.4990915 
H     5.0325969    0.2390186   -0.6437625 
C     4.3138172   -0.2156008   -3.2749933 
H     5.1305648    1.6927387   -2.7364793 
H     3.3524478    1.6833424   -2.8143316 
C     3.3377372   -0.8017193   -3.9887000 
C     2.0648330   -0.3939031   -4.2311334 
C     1.2622920   -1.1894272   -4.9946244 
C     1.7377653   -2.3669511   -5.5012151 
C     3.0195625   -2.7556513   -5.2478564 
C     3.7941245   -1.9513736   -4.4897567 
H     1.6820108    0.5409854   -3.8344038 
H     0.2401784   -0.8828302   -5.2040763 
H     1.0925741   -2.9944198   -6.1110581 
H     3.4133986   -3.6857089   -5.6433031 
N     5.1446165   -2.1724022   -4.1091063 
C     5.4031159   -1.0025843   -3.3225116 
H     5.7759202   -2.9738884   -4.3386796 
H     6.3480380   -0.7917113   -2.8264306 
