48
 energy: -9.286261233211 gnorm: 0.000654217528 xtb: 6.6.0 (2ccbbd7)
C            1.02621509017128       -2.93481769025069       -2.80873124151367
C            0.92860258159201       -2.07930085742734       -1.73927435726084
C           -0.10258139919608       -3.27466340013530       -3.55253874312513
C           -1.32661437178286       -2.71898357142467       -3.18281015792652
C           -1.41504684527348       -1.85870149067566       -2.11416313611394
C           -0.28923050158081       -1.52836064265730       -1.37283299752785
H            1.80967660916858       -1.80727300783213       -1.18461994664912
H           -2.19793492959977       -2.97726012114046       -3.75759962509614
H           -2.36553067990116       -1.43048991967109       -1.84614347704737
H            1.98354076573429       -3.33021161695680       -3.09138177353694
C           -0.37453142790288       -0.56128024511426       -0.23330465879995
C            0.34582339548789        0.76481982335634       -0.51600910458684
H            0.06169036016520       -1.02259500237508        0.65912950847357
H           -1.42627676822047       -0.37053842770709        0.00259622150208
C            1.84662557745762        0.58075778630622       -0.52101321947339
O           -0.03165228411088       -4.13209809467102       -4.63301614180490
H            0.89442925304081       -4.43045832354745       -4.76369132441416
O            2.35878444559154       -0.25297823804544        0.19848321911551
N           -0.08864516380128        1.36461445354699       -1.77020669424296
H            0.12167763708170        1.48219935322543        0.29018657287765
H            0.16602149857831        0.75345634153875       -2.53452047200054
H           -1.09550553088377        1.46347742546062       -1.78631810941017
N            2.57596025798255        1.40498008498327       -1.34484939664254
C            4.01751269420047        1.51446938489234       -1.16018816132523
H            2.11240699698337        2.22432224879799       -1.75493587441891
C            4.44855658725498        2.96340264161285       -1.19716003195957
O            5.18306107529529        3.35882282796248       -0.31781126730157
O            3.99454717648999        3.69561297229463       -2.24094969363198
H            3.43812791670627        3.14574841646168       -2.83753219054995
C            4.82303120507275        0.69542343713221       -2.16898158686810
H            4.21410190306859        1.14604467205522       -0.14417330549096
C            4.59320352669307       -0.77982587884905       -2.12740744166690
H            5.89036676806489        0.89168590608656       -2.02099298252142
H            4.59177116392914        1.06283398472891       -3.17286884709343
C            4.77434133280934       -1.65644088320768       -1.01480287874931
C            5.12741398765637       -1.44824543111042        0.33061654781371
C            5.21764571571602       -2.52854092193000        1.16339615676009
C            4.97641682303279       -3.82985709776114        0.69571366372177
C            4.64624009674310       -4.06100997730228       -0.61099832555468
C            4.54357533576444       -2.96690653914155       -1.47887051236776
H            5.31470878976459       -0.45353677559861        0.69208934273453
H            5.47616501695469       -2.37948528578688        2.19872668032012
H            5.05525331285254       -4.65903638193157        1.37919202064691
H            4.46367839561192       -5.05432642125534       -0.97985296332512
N            4.25086694866580       -2.88918814455646       -2.82847440896550
C            4.28868433154797       -1.57039745688141       -3.20908704166889
H            4.16766350605382       -3.69680254558636       -3.44925587962595
H            4.12508596621515       -1.21628156635036       -4.21415141898111
