48
Energy =
C     1.6210627    0.4895287    2.9921929 
C     2.3549661    1.1129714    2.0357024 
C     0.9682653    1.2177833    3.9360019 
C     1.0567648    2.5664854    3.9177290 
C     1.7886780    3.1952731    2.9635147 
C     2.4391807    2.4721055    2.0094883 
H     2.8783648    0.5119177    1.2987743 
H     0.5339873    3.1356357    4.6786946 
H     1.8477638    4.2800822    2.9719120 
H     1.5596351   -0.5933460    3.0016390 
C     3.2533150    3.1766125    0.9403521 
C     2.4393565    3.5630752   -0.3277415 
H     4.1279797    2.5527543    0.6535980 
H     3.7039929    4.0988317    1.3689077 
C     1.9913787    2.3779810   -1.1857097 
O     0.2042294    0.6065561    4.9353096 
H     0.1828032   -0.4055821    4.8765048 
O     1.0269712    2.5798562   -2.1681231 
N     1.3011427    4.4302759    0.0290617 
H     3.1077944    4.1447571   -1.0082784 
H     0.5667600    3.8783034    0.5335703 
H     1.6115904    5.2167437    0.6452080 
N     2.6633055    1.1011808   -1.1559715 
C     4.0096761    1.0566759   -1.8065813 
H     1.9959469    0.4354048   -1.6127275 
C     4.4810728    2.3610378   -2.4622827 
O     5.4663836    3.1082731   -1.8306789 
O     3.8798568    2.8853940   -3.6032243 
H     3.0558293    2.3610256   -3.8596917 
C     4.1083025   -0.1533421   -2.7699191 
H     4.7462729    0.8710623   -0.9928728 
C     5.5383362   -0.4267291   -3.1904007 
H     3.4579878   -0.0014445   -3.6573626 
H     3.7216130   -1.0612887   -2.2554531 
C     6.1516322   -0.0214989   -4.3155097 
C     5.6716992    0.6950820   -5.3646175 
C     6.5171298    0.9833159   -6.3952047 
C     7.8150393    0.5546365   -6.3648625 
C     8.2757676   -0.1643055   -5.3024834 
C     7.4202427   -0.4362506   -4.2946604 
H     4.6452464    1.0438051   -5.3928013 
H     6.1573903    1.5633039   -7.2417830 
H     8.4834116    0.7927045   -7.1884369 
H     9.3036074   -0.5078942   -5.2602386 
N     7.7011378   -1.1580784   -3.1039620 
C     6.4312703   -1.0996755   -2.4426728 
H     8.5924340   -1.6122793   -2.7996282 
H     6.2286349   -1.5277595   -1.4638839 
