48
Energy =
C     5.5492221    1.6393681    1.4943174 
C     5.1958681    1.3777103    2.8689773 
C     5.9913871    2.7144971    1.2729580 
C     5.7214323    3.7674338    2.0616355 
C     4.6620880    3.9088524    3.1958307 
C     4.0486913    2.5642132    3.1856653 
H     5.1521475    0.4161295    3.3880665 
H     6.8456425    4.5521419    2.1983463 
H     3.7968799    4.5423953    3.1288888 
H     6.6802824    1.9531757    2.1794035 
C     3.7487777    3.2272249    1.7924307 
C     3.3220209    2.5033875    2.3767048 
H     4.1086951    2.9131042    1.6873751 
H     2.9265610    3.2285365   -0.2726206 
C     1.1391937    0.5810374    1.4452856 
O     6.0831007    3.0742703    0.0127083 
H     6.6213577    3.9672482    0.0754544 
O     1.2116153    0.6232712    1.4198944 
N     2.8191636    1.6006380    1.7711152 
H     2.3258592    2.7159884    1.5308340 
H     2.8429963    0.9996123    2.4876707 
H     2.8429963    0.9996123    2.4876707 
N     2.7024790   -0.1232221    1.0868261 
C     2.4781109    0.5508525   -0.1578759 
H     2.3789949   -1.3319564    1.1429263 
C     3.1739242    1.1964631   -0.5701814 
O     3.9563253    1.7787177    0.1557412 
O     3.3522651    1.7048240   -1.7057606 
H     3.4099439    1.9398799   -2.6060838 
C     2.1633637    0.3445502   -2.0607307 
H     1.7760745    1.5650197   -0.4767627 
C     3.5407289   -0.0564211   -2.5316489 
H     1.8704924    1.1925892   -2.3634599 
H     1.8704924    1.1925892   -2.3634599 
C     4.8134194    0.2659776   -1.5535081 
C     6.3138713    0.7171561   -0.3537032 
C     6.1511772   -0.4286651    0.5141707 
C     4.7365308   -0.9526322    0.7172187 
C     4.2211821   -1.4817854   -0.3261811 
C     4.5943177   -1.0475288   -1.4945767 
H     5.0845565    1.1099083   -1.2683037 
H     6.5157231    0.5873094    0.0507858 
H     4.3747285   -1.2827491    1.6486754 
H     3.5230044   -2.2866822   -0.2372216 
N     4.6463571   -1.8309363   -2.6364673 
C     3.7267894   -1.2581673   -3.5519510 
H     5.6325485   -1.7882310   -3.0131734 
H     2.8727732   -1.7730039   -4.0085932 
