48
 energy: -9.070691680145 gnorm: 0.000604030619 xtb: 6.6.0 (2ccbbd7)
C           -3.27115688068544        3.24424780283706        1.86855102328165
C           -1.92252532042550        3.05067605377021        1.68342938726845
C           -4.19138128514011        2.28853791226966        1.43621562373662
C           -3.70605763519053        1.13770927233162        0.81570502563660
C           -2.35642235849755        0.95221833427802        0.63310281983692
C           -1.44431179823223        1.90289690330685        1.06816119787047
H           -1.22060649202250        3.79792174579099        2.01218217966521
H           -4.41531315862729        0.40214323241657        0.48088883402401
H           -1.99644607688057        0.06334076350870        0.14389712350398
H           -3.63075255783888        4.13826801071214        2.34685410964555
C            0.02099048547188        1.73230608606234        0.81772405733639
C            0.51317504345585        2.56607131451047       -0.36483114451045
H            0.24710053939200        0.67847324671321        0.63083529300702
H            0.58465524089300        2.00087767158588        1.71756710489104
C            2.00546583380967        2.44143973682402       -0.54609476667805
O           -5.55355937326811        2.45413277392778        1.60123620995164
H           -5.73671797278511        3.31109328897664        2.04346302509458
O            2.74698955256668        3.10970739623350        0.14757702480069
N           -0.17433713177000        2.24500458069939       -1.61422840683553
H            0.32126861799834        3.63040535681265       -0.15200810373701
H           -0.20164505759777        1.23996835592330       -1.73191158561838
H           -1.14009835230237        2.54185447493421       -1.56344101603329
N            2.46646785043506        1.59564469033571       -1.53580624034235
C            3.68075236409310        1.95084618685367       -2.25329795387037
H            1.80009594346397        1.08920198940932       -2.12749292962648
C            3.35717269768947        2.97968867833642       -3.30373856268634
O            4.37346967925190        3.63980978963784       -3.92674602847876
O            2.03993300828973        3.23107840654273       -3.63583120399099
H            1.38774979911716        2.91032995436714       -2.94985175931778
C            4.37034128751139        0.69296569697373       -2.83130051314354
H            4.34054681245913        2.41648465231245       -1.50563766264411
C            5.85145691027966        0.66379307396755       -2.63341093566470
H            4.13648333210032        0.60397506704987       -3.89702067011138
H            3.93756865528263       -0.19328246519068       -2.35490061783122
C            6.75733873400858        1.73947556978513       -2.85516560151871
C            6.56889264580711        3.05204418056585       -3.29504173806282
C            7.64704840999676        3.87793280686766       -3.40136507594137
C            8.93695990215540        3.42486851754199       -3.07506497402367
C            9.14970416550446        2.14222945529987       -2.64585820235334
C            8.04930767917992        1.28183283691737       -2.53255980158812
H            5.42069246649325        3.37015087645448       -3.60390954922893
H            7.50491455369291        4.88937559195237       -3.74359890879758
H            9.77114093015625        4.10038309644531       -3.16750717784028
H           10.13309580777627        1.78668626577266       -2.39581522691383
N            7.92828560005199       -0.03905320618945       -2.13801742251699
C            6.60403700694316       -0.40182529410827       -2.20294406016192
H            8.70616417390843       -0.63266593296110       -1.84428382210030
H            6.21950720807611       -1.37561516271159       -1.94627574371652
