48
 energy: -9.289746312546 gnorm: 0.000829867910 xtb: 6.6.0 (2ccbbd7)
C            1.75110967882813        5.07228421092771       -0.65372784980999
C            1.08264921982855        3.95041712414947       -1.08175346038748
C            1.54228918188986        5.57405300365117        0.63152073370095
C            0.64360072547507        4.90607098170283        1.46333600511899
C           -0.02131691033027        3.78505966757990        1.02642348428455
C            0.18271856667308        3.29313589246291       -0.25447423665205
H            1.26461921781616        3.56279570275712       -2.06889851600476
H            0.48652342673029        5.29016090450909        2.45556961401558
H           -0.70809175747302        3.27575844480622        1.68057934948480
H            2.44645171239263        5.57051827356620       -1.30550578964611
C           -0.51653172952473        2.05381359324244       -0.72134998365301
C            0.28186296432134        0.76873724013666       -0.45267625018980
H           -0.73213705132907        2.14763373950431       -1.79048948711450
H           -1.48985996714335        1.98097213364992       -0.22589387046979
C            1.67440249879892        0.83878866411971       -1.03747605185043
O            2.19593601169624        6.70021374673739        1.09394535338481
H            2.79935977297500        7.04636059241291        0.40185117146821
O            2.62918565242297        0.75117557989840       -0.29448755816054
N            0.37507988384536        0.49754631696588        0.97177699527944
H           -0.24076553615798       -0.08262067267830       -0.91788552277193
H            0.94324459980161       -0.32844636084332        1.10630271804557
H            0.90407457349827        1.25158900961062        1.38608647067336
N            1.79853070266645        1.01894654200712       -2.39687765915435
C            3.07670366178993        1.40456601841827       -2.98163871164859
H            0.98280593972151        1.24723963807565       -2.96681620704469
C            2.90919443738477        1.60746088772741       -4.47220679919323
O            3.38337901812882        2.60529542421142       -4.97190821521426
O            2.24605695889671        0.62698667465480       -5.12870396268504
H            1.95279800233337       -0.06928254848991       -4.49539508695858
C            4.17348977437811        0.39079316302529       -2.65278838081773
H            3.35344642051293        2.37215442544572       -2.54011439692443
C            5.55942390092630        0.79952548097083       -3.03154843584847
H            3.93332309333434       -0.56396651974164       -3.12856766090190
H            4.15028196331475        0.20935266100230       -1.57314350502611
C            6.75621315754897        0.28155663440847       -2.45417388502085
C            6.99462309456467       -0.64875746222119       -1.42791435465987
C            8.28872681943068       -0.94297715088881       -1.09825090791294
C            9.36517424142103       -0.33470672490107       -1.76457972778185
C            9.15658266460077        0.57584665445529       -2.76449382189762
C            7.83860658093508        0.89239525933412       -3.11701496516948
H            6.16700330093654       -1.11031147059326       -0.91920634233834
H            8.48854553578887       -1.65470564733111       -0.31421040178521
H           10.37259319608122       -0.59006064493805       -1.48025265444603
H            9.97458828437766        1.04669733489767       -3.27947932551357
N            7.31285645405061        1.74862591982639       -4.06831307848324
C            5.94437157442389        1.68111798222707       -4.01157372326926
H            7.86421968305977        2.32216276870496       -4.70954745945800
H            5.27522819082969        2.24153511518036       -4.64372709055696
