48
Energy =
C     0.1856691    1.4430403    2.8966765 
C     0.1577805    2.4196533    1.9547710 
C    -0.5055816    0.2877397    2.7042611 
C    -1.2188563    0.1170766    1.5681731 
C    -1.2498414    1.0897444    0.6227572 
C    -0.5656995    2.2513873    0.8138794 
H     0.7228039    3.3335760    2.1186556 
H    -1.7606393   -0.8110614    1.4236354 
H    -1.8174404    0.9271102   -0.2902070 
H     0.7656325    1.5871709    3.8019586 
C    -0.5692892    3.3259628   -0.2515743 
C     0.6962973    3.2554089   -1.1382400 
H    -0.6290651    4.3218198    0.2403568 
H    -1.4799617    3.2350096   -0.8869358 
C     0.8008464    1.9311021   -1.8786459 
O    -0.4986174   -0.7381880    3.6547063 
H     0.0707556   -0.5381462    4.4697944 
O    -0.2122627    1.5911058   -2.7733000 
N     0.7048720    4.3798377   -2.0872591 
H     1.5990412    3.3286359   -0.4857474 
H    -0.1647532    4.3561167   -2.6731219 
H     0.7075664    5.2854086   -1.5610412 
N     1.5875128    0.8755573   -1.3090387 
C     2.8971963    0.6710274   -1.9767859 
H     1.0179761    0.0016639   -1.3975560 
C     3.9562658    1.7186508   -1.5989087 
O     5.0990663    1.2997402   -0.9285387 
O     3.8389396    3.0770565   -1.8950938 
H     3.0878461    3.2602383   -2.5382182 
C     2.7628305    0.3145813   -3.4925860 
H     3.3157258   -0.2532997   -1.5130193 
C     2.9870316    1.4615169   -4.4559987 
H     1.7665564   -0.1423837   -3.6882450 
H     3.4945981   -0.4856733   -3.7437044 
C     4.1714165    1.9435655   -4.8684960 
C     5.4311029    1.5593966   -4.5369035 
C     6.4809129    2.2256053   -5.0971914 
C     6.2596114    3.2511362   -5.9742279 
C     4.9862604    3.6175111   -6.2947931 
C     3.9645209    2.9446531   -5.7247630 
H     5.6104941    0.7511120   -3.8333683 
H     7.4986118    1.9430130   -4.8394568 
H     7.1018856    3.7784358   -6.4142417 
H     4.7932748    4.4293472   -6.9873254 
N     2.5757928    3.1649447   -5.9208164 
C     2.0136231    2.1588091   -5.0688054 
H     2.0947148    3.8703118   -6.5233500 
H     0.9482003    1.9722184   -4.9647637 
