48
Energy =
C    -2.0322447   -2.1588692    1.3531627 
C    -0.8174733   -1.5722527    1.2030807 
C    -2.7622623   -2.5087840    0.2602256 
C    -2.2715718   -2.2671068   -0.9766148 
C    -1.0579651   -1.6812746   -1.1327186 
C    -0.3208390   -1.3347029   -0.0415970 
H    -0.2460181   -1.2941132    2.0854229 
H    -2.8650708   -2.5466216   -1.8399980 
H    -0.6858807   -1.4877124   -2.1353505 
H    -2.4188692   -2.3460220    2.3491469 
C     1.0249011   -0.6673825   -0.2097788 
C     0.9549752    0.8639603   -0.0231849 
H     1.4468512   -0.8985571   -1.2073204 
H     1.7385468   -1.0975006    0.5301237 
C     2.3456746    1.4700008   -0.0933568 
O    -4.0171091   -3.1148968    0.3794287 
H    -4.3153349   -3.2595172    1.3379671 
O     3.2447935    1.2335217    0.9398487 
N     0.0400793    1.4759284   -1.0055787 
H     0.5969703    1.0942821    1.0083994 
H     0.2480623    1.1190959   -1.9681339 
H    -0.9479364    1.2081725   -0.7830541 
N     2.7723427    2.2382076   -1.2245135 
C     4.0531667    1.8641161   -1.8547476 
H     2.1555481    3.0121289   -1.5634110 
C     4.6902855    3.0514549   -2.5671075 
O     5.1233283    2.9342845   -3.8821715 
O     4.8810184    4.2658861   -1.9120522 
H     4.5502805    4.2306791   -0.9571290 
C     3.8650092    0.6154759   -2.7595108 
H     4.7992488    1.6092299   -1.0644433 
C     2.6479716    0.6521341   -3.6737991 
H     3.7850694   -0.2587984   -2.0807271 
H     4.7722781    0.4510964   -3.3838557 
C     1.9252457   -0.4121334   -4.0702047 
C     2.0730842   -1.7302615   -3.7693997 
C     1.1882813   -2.6217949   -4.3005048 
C     0.1845723   -2.1920928   -5.1226499 
C     0.0629707   -0.8685765   -5.4232486 
C     0.9485788   -0.0055692   -4.8833592 
H     2.8731953   -2.0825259   -3.1263919 
H     1.2847314   -3.6811300   -4.0731494 
H    -0.5141057   -2.9095796   -5.5463622 
H    -0.7206285   -0.5117814   -6.0834128 
N     1.0053437    1.3969527   -5.0840740 
C     2.1442514    1.7438926   -4.2845151 
H     0.3821423    2.0132552   -5.6555612 
H     2.5460645    2.7516741   -4.2093058 
