48
Energy =
C     3.5399962    0.3915447    2.2512592 
C     2.3379136    0.9842653    2.0361823 
C     3.6462426   -0.9634025    2.2335163 
C     2.5448242   -1.7167313    2.0171536 
C     1.3397954   -1.1294014    1.8106871 
C     1.2308279    0.2285155    1.8001898 
H     2.2642114    2.0685999    2.0583233 
H     2.6378275   -2.7969781    2.0169940 
H     0.4662973   -1.7565101    1.6590554 
H     4.4156293    1.0030367    2.4399522 
C    -0.1046058    0.8995877    1.5447161 
C    -0.4871382    1.0270224    0.0461397 
H    -0.1045568    1.9165564    1.9985033 
H    -0.9022000    0.3424727    2.0835974 
C     0.5840911    1.6784794   -0.8301789 
O     4.8719606   -1.6045066    2.4387177 
H     5.6443993   -0.9728349    2.6187307 
O     0.2255116    2.8023710   -1.5645753 
N    -0.9494657   -0.2637018   -0.4979521 
H    -1.3486952    1.7356702   -0.0077052 
H    -0.2124508   -0.9984353   -0.4166809 
H    -1.7848792   -0.5985574    0.0380838 
N     1.7692240    0.9520120   -1.2057908 
C     3.0745826    1.6260611   -1.4084348 
H     1.7063896   -0.0883956   -1.2481658 
C     3.0926110    3.1341522   -1.1100656 
O     2.7066263    4.0445957   -2.0876744 
O     3.5668216    3.6329002    0.1069955 
H     3.9814704    2.9189928    0.6820144 
C     3.5558963    1.3417382   -2.8479540 
H     3.8047766    1.1647347   -0.7105322 
C     3.7852586   -0.1354931   -3.0817689 
H     4.4992835    1.8922435   -3.0606831 
H     2.7930444    1.7247344   -3.5663959 
C     4.8163853   -0.8690306   -2.6349312 
C     5.9114496   -0.4905455   -1.9268736 
C     6.8147048   -1.4483589   -1.5703422 
C     6.6120723   -2.7542307   -1.9227013 
C     5.5054296   -3.1101282   -2.6352433 
C     4.6276459   -2.1440992   -2.9777137 
H     6.0735244    0.5458715   -1.6473631 
H     7.6992712   -1.1735019   -1.0009506 
H     7.3344884   -3.5125021   -1.6310976 
H     5.3275522   -4.1417892   -2.9189916 
N     3.4122756   -2.3024232   -3.6959721 
C     2.9261850   -0.9539896   -3.7143740 
H     2.9849707   -3.1684915   -4.0969554 
H     1.9766237   -0.6479175   -4.1486230 
