48
Energy =
C    -3.4865104    0.2936991   -2.7672169 
C    -2.2018162    0.7108044   -2.6510924 
C    -4.5058317    1.0985396   -2.3615106 
C    -4.2294642    2.3157669   -1.8399710 
C    -2.9458501    2.7382991   -1.7215081 
C    -1.9220875    1.9388851   -2.1317394 
H    -1.3986501    0.0543423   -2.9763622 
H    -5.0488535    2.9481872   -1.5159806 
H    -2.7465054    3.7175987   -1.2940321 
H    -3.6936807   -0.6863957   -3.1846529 
C    -0.4853984    2.3948130   -1.9901166 
C     0.1888370    1.8007129   -0.7317898 
H    -0.4297170    3.5059700   -1.9564520 
H     0.0792035    2.0827009   -2.8998000 
C     1.6891054    2.0301470   -0.8053287 
O    -5.8429443    0.6999957   -2.4683360 
H    -5.9620992   -0.2272068   -2.8618314 
O     2.1633586    3.3364027   -0.7104247 
N    -0.3654277    2.3698904    0.5061499 
H     0.0111314    0.7018027   -0.7106551 
H    -0.3573044    3.4156244    0.4532330 
H    -1.3605595    2.0633122    0.6091558 
N     2.5221414    1.0023646   -1.3911894 
C     3.9968210    1.1329439   -1.5368209 
H     2.0404724    0.1891404   -1.8413958 
C     4.5338105    2.5449409   -1.5935073 
O     5.2748143    3.0371556   -0.5276747 
O     4.3980977    3.3181784   -2.7483864 
H     3.8194550    2.7412880   -3.5471139 
C     4.4682897    0.3737459   -2.7978367 
H     4.4844704    0.6681530   -0.6567395 
C     3.6171762    0.7047214   -4.0219861 
H     4.4408785   -0.7021900   -2.5528452 
H     5.5331371    0.6075218   -3.0281882 
C     3.0560636   -0.1887358   -4.8488302 
C     3.1621616   -1.5457491   -4.8473780 
C     2.4872690   -2.2567216   -5.7929974 
C     1.7208240   -1.6136762   -6.7194475 
C     1.6264280   -0.2571496   -6.7051558 
C     2.3067350    0.4305106   -5.7587133 
H     3.7685890   -2.0724029   -4.1163806 
H     2.5579979   -3.3416284   -5.8084614 
H     1.1823976   -2.1856389   -7.4700573 
H     1.0160747    0.2616414   -7.4380169 
N     2.3074103    1.8431151   -5.6003095 
C     3.1715996    2.1068149   -4.4398380 
H     1.7927004    2.5166039   -6.2167754 
H     3.0760681    3.2157196   -4.4607664 
