48
Energy =
C     3.4897981    3.5538721    2.3579450 
C     3.5493616    2.3088037    1.8228251 
C     2.7943123    3.7719710    3.5052561 
C     2.1586142    2.7412499    4.1073325 
C     2.2115308    1.4941688    3.5744842 
C     2.9137779    1.2679669    2.4300794 
H     4.1018452    2.1566472    0.9004826 
H     1.6025166    2.9295709    5.0192195 
H     1.6859188    0.6813020    4.0685029 
H     3.9960233    4.3747065    1.8618764 
C     2.9468493   -0.1196016    1.8223954 
C     1.7247408   -0.3749795    0.9086098 
H     2.9587174   -0.8718723    2.6421286 
H     3.8938720   -0.2732912    1.2600539 
C     1.7754115    0.4499724   -0.3771429 
O     2.7164401    5.0420549    4.0864997 
H     3.1986995    5.7656550    3.5641247 
O     1.2517940    1.7360750   -0.3567824 
N     1.5757244   -1.8194146    0.6473808 
H     0.8057184   -0.0131144    1.4314513 
H     2.5083634   -2.2640347    0.4787520 
H     1.1851659   -2.2804001    1.5036634 
N     2.1309660   -0.1067510   -1.6564726 
C     3.5761094   -0.4082302   -1.7744032 
H     1.5695596   -0.9818930   -1.7601956 
C     4.4848669    0.7804672   -1.4536463 
O     5.6945564    0.5414466   -0.8136306 
O     4.1622689    2.0947369   -1.7855100 
H     3.2566275    2.1463749   -2.2349522 
C     3.8671056   -0.9730525   -3.1818694 
H     3.8525275   -1.2030728   -1.0483330 
C     3.5817064    0.0275828   -4.2824399 
H     3.2500953   -1.8830005   -3.3497555 
H     4.9248120   -1.3119099   -3.2393761 
C     4.4497450    0.8875875   -4.8400940 
C     5.7705910    1.0805576   -4.5889142 
C     6.4304869    2.0451917   -5.2919982 
C     5.7687886    2.7954856   -6.2242367 
C     4.4416006    2.5878510   -6.4559392 
C     3.8112279    1.6269799   -5.7483581 
H     6.2956440    0.5011044   -3.8353510 
H     7.4856405    2.2247741   -5.1017953 
H     6.3003410    3.5663986   -6.7757768 
H     3.8988260    3.1804917   -7.1839798 
N     2.4388817    1.2693801   -5.8206228 
C     2.3726984    0.2321739   -4.8331602 
H     1.6858042    1.6564046   -6.4336682 
H     1.4627864   -0.2911075   -4.5487197 
