48
Energy =
C     2.8339716   -4.8039845    2.5009260 
C     2.7311683   -3.4516593    2.4733439 
C     2.1301152   -5.5609909    1.6177184 
C     1.3205309   -4.9591242    0.7175212 
C     1.2138471   -3.6069663    0.6844751 
C     1.9207622   -2.8441439    1.5633715 
H     3.3112971   -2.8609640    3.1774301 
H     0.7611731   -5.5757978    0.0226183 
H     0.5632248   -3.1420332   -0.0524954 
H     3.4859190   -5.2770543    3.2270373 
C     1.8536217   -1.3360476    1.4787630 
C     2.7359296   -0.8141187    0.3188096 
H     2.1554137   -0.8618808    2.4416540 
H     0.7909195   -1.0291561    1.3295912 
C     2.3708949    0.5848098   -0.1053295 
O     2.2245387   -6.9560074    1.6086311 
H     2.8280917   -7.3324823    2.3318059 
O     1.8573830    1.4845302    0.8168368 
N     4.1685573   -0.8945850    0.6898709 
H     2.5027223   -1.3955410   -0.6162993 
H     4.3554890   -0.3133673    1.5476795 
H     4.4446583   -1.8808436    0.9197753 
N     2.3294473    0.9040734   -1.5011639 
C     3.6989783    1.0198763   -2.0822337 
H     1.8045420    1.8124429   -1.5632312 
C     4.1070186    2.4539060   -2.3862578 
O     5.4393066    2.8225817   -2.2719505 
O     3.1975300    3.3647588   -2.9051431 
H     3.0853224    3.1861869   -3.8910744 
C     3.7631078    0.1565498   -3.3626215 
H     4.4944117    0.6707630   -1.3750259 
C     3.6440143   -1.3192768   -3.0501936 
H     4.7174128    0.3298242   -3.9094548 
H     2.9334739    0.4477004   -4.0470885 
C     4.5780207   -2.1014497   -2.4847307 
C     5.8542793   -1.8122089   -2.1237935 
C     6.5882409   -2.7823272   -1.5063817 
C     6.0396895   -4.0103133   -1.2564070 
C     4.7551519   -4.2775047   -1.6263508 
C     4.0537393   -3.3051752   -2.2447169 
H     6.2872874   -0.8337098   -2.3110139 
H     7.6130599   -2.5757233   -1.2066811 
H     6.6293635   -4.7768555   -0.7596091 
H     4.3025748   -5.2438216   -1.4276080 
N     2.7028780   -3.3646632   -2.6757301 
C     2.5161328   -2.0417950   -3.1803156 
H     2.0014052   -4.1355739   -2.6051508 
H     1.5646088   -1.6718683   -3.5349627 
