48
Energy =
C    -2.7298780    1.7569118    0.3507828 
C    -1.7160855    2.6522921    0.2327676 
C    -2.7599076    0.8932459    1.4004312 
C    -1.7738984    0.9309522    2.3251020 
C    -0.7573363    1.8229267    2.2112839 
C    -0.7250184    2.6937215    1.1654713 
H    -1.6988831    3.3311877   -0.6182062 
H    -1.8088636    0.2357605    3.1567696 
H     0.0273640    1.8341447    2.9630906 
H    -3.5139106    1.7308012   -0.3986531 
C     0.4227019    3.6709631    1.0277810 
C     1.6512291    3.0143787    0.3500533 
H     0.6973695    4.0426024    2.0395988 
H     0.1067593    4.5695686    0.4487589 
C     1.4242434    2.7095470   -1.1257402 
O    -3.7882667   -0.0423365    1.5505593 
H    -4.4890795   -0.0037446    0.8185279 
O     0.4692766    3.4023158   -1.8608632 
N     2.8334834    3.8728506    0.5184882 
H     1.8508282    2.0316195    0.8361337 
H     2.6766140    4.7924439    0.0371394 
H     3.0019526    4.0709881    1.5322858 
N     2.1466790    1.6599249   -1.7786333 
C     3.6166126    1.7868693   -1.8783303 
H     1.5994787    0.8513153   -2.1456982 
C     4.0864607    3.1389824   -2.4260323 
O     5.2841530    3.6685847   -1.9601414 
O     3.3955327    3.8344365   -3.4166832 
H     2.5537480    3.3440273   -3.6844122 
C     4.1985397    0.5953193   -2.6745232 
H     4.0426694    1.7268118   -0.8515880 
C     3.8099350    0.6065875   -4.1400193 
H     3.8587185   -0.3561832   -2.2091325 
H     5.3075899    0.5961601   -2.5847442 
C     4.4590378    1.2199416   -5.1440340 
C     5.5978943    1.9600884   -5.1241972 
C     6.0510715    2.4855471   -6.2982134 
C     5.3706510    2.2632796   -7.4630989 
C     4.2313084    1.5151006   -7.4602153 
C     3.8019107    1.0079165   -6.2853986 
H     6.1372343    2.1481732   -4.2003431 
H     6.9543476    3.0903681   -6.3049300 
H     5.7367321    2.6888401   -8.3935686 
H     3.6779792    1.3318019   -8.3745881 
N     2.6470490    0.2115942   -6.0661554 
C     2.7268529   -0.0046645   -4.6520781 
H     1.9367318   -0.1272701   -6.7536648 
H     2.0114460   -0.5910330   -4.0823848 
