48
Energy =
C    -4.6891781   -2.4665925   -1.6187784 
C    -3.3602915   -2.6328983   -1.8383567 
C    -5.1219027   -1.5822244   -0.6805125 
C    -4.2200026   -0.8689764    0.0314450 
C    -2.8900267   -1.0312397   -0.1838294 
C    -2.4518675   -1.9179106   -1.1189125 
H    -3.0309538   -3.3398277   -2.5953509 
H    -4.5770636   -0.1651849    0.7750897 
H    -2.1808160   -0.4463072    0.3960667 
H    -5.4046328   -3.0416520   -2.1964955 
C    -0.9699043   -2.0863696   -1.3701707 
C    -0.3819628   -0.9327926   -2.2166512 
H    -0.7592235   -3.0599729   -1.8680682 
H    -0.4457254   -2.1327938   -0.3894236 
C     1.1325034   -1.0175915   -2.2691468 
O    -6.4843216   -1.3868824   -0.4300102 
H    -7.0935596   -1.9590069   -1.0041122 
O     1.7617460   -2.2311641   -2.5368207 
N    -0.9437146   -0.9381529   -3.5764646 
H    -0.6263064    0.0387123   -1.7273025 
H    -0.8021401   -1.8803249   -4.0129912 
H    -1.9736783   -0.7565056   -3.5339626 
N     1.9244920    0.1719101   -2.1920724 
C     2.9589427    0.2150705   -1.1450190 
H     1.7051069    0.9781731   -2.8216723 
C     3.0285652    1.5820959   -0.4704568 
O     2.8037506    2.7361133   -1.2113202 
O     3.4421930    1.7184310    0.8551411 
H     3.5952806    0.8279942    1.3054222 
C     4.3185481   -0.1861442   -1.7508750 
H     2.7123991   -0.5206155   -0.3452450 
C     4.7209158    0.6967193   -2.9172542 
H     4.2653266   -1.2482302   -2.0764371 
H     5.1051684   -0.1434903   -0.9655003 
C     4.5046593    0.4640390   -4.2234509 
C     3.9098673   -0.5916616   -4.8375170 
C     3.8063283   -0.5777700   -6.1970258 
C     4.2920055    0.4783502   -6.9163216 
C     4.8834019    1.5285933   -6.2801829 
C     4.9755053    1.4916161   -4.9343746 
H     3.5138352   -1.4302275   -4.2733907 
H     3.3292270   -1.4098600   -6.7099406 
H     4.2013833    0.4828679   -7.9999707 
H     5.2679094    2.3772090   -6.8364678 
N     5.5384480    2.4838693   -4.0879971 
C     5.3239122    1.8944586   -2.7970450 
H     5.9961433    3.3904923   -4.3419820 
H     5.5622110    2.3775972   -1.8490256 
