48
 energy: -9.292474435611 gnorm: 0.000637834388 xtb: 6.6.0 (2ccbbd7)
C           -3.66763363954496        2.15362870515822        0.63654361954292
C           -2.31967385779449        2.30744763975980        0.41371528608614
C           -4.13692169792139        1.70514671737130        1.87172167338115
C           -3.20445186008412        1.42000497082994        2.86869312297931
C           -1.85883312634308        1.57892152090383        2.63912314551269
C           -1.39631151266262        2.02856928769757        1.41067705310824
H           -1.96701819436293        2.64903460435805       -0.54436687717035
H           -3.56578404145742        1.07341831380294        3.82031931269781
H           -1.14971533044644        1.35365776322308        3.41721778376880
H           -4.37483020840132        2.37645236106929       -0.14213971871847
C            0.07038546477384        2.16368282358087        1.14647706867706
C            0.66136789976750        0.96949612868375        0.39292790951151
H            0.60954190054536        2.27892666851692        2.09163800227968
H            0.26113451860150        3.08541810451963        0.58691132952728
C            2.12969091585399        1.19971680517305        0.14279124233921
O           -5.48433413102641        1.53625869713469        2.12716348939010
H           -6.00967700865910        1.77612867509501        1.33364550808633
O            2.85897915400320        1.37102910357190        1.09804216136390
N            0.49818721192584       -0.27942488165054        1.11967071739536
H            0.14895031723677        0.86099908042312       -0.57483624605356
H            1.12929126011908       -0.27256060638894        1.91016432907042
H           -0.44611574697214       -0.36561855153393        1.47349708602419
N            2.58782375535772        1.22722830913885       -1.15453137843526
C            3.97586647416643        1.54054340468760       -1.46088974199826
H            1.94446587755860        1.27092772618593       -1.94595808797581
C            4.15669591466593        3.05075042144905       -1.48073265160773
O            4.51299358224819        3.61083586419325       -2.49410823965030
O            3.87922229078631        3.64883034816359       -0.29777414886735
H            3.55607292799352        2.95338711384034        0.32467527421614
C            4.44179115982103        0.86105592107518       -2.75104322485270
H            4.57128526133535        1.13939576778842       -0.62725726730779
C            5.92611751446195        0.85173684134934       -2.90950823367158
H            3.98813726519928        1.37619434289085       -3.60317751217634
H            4.06465647906303       -0.16572837180395       -2.77541249547919
C            6.78869562081890       -0.28511650404621       -2.92532242421470
C            6.55599011087108       -1.66645303561543       -2.80785341022926
C            7.62537404615685       -2.51753407298813       -2.85387631049888
C            8.93405621600345       -2.03416035495439       -3.01515950589364
C            9.18486280824480       -0.69430557459709       -3.13029236242036
C            8.10407956575126        0.19536355620595       -3.08496728482945
H            5.55355488703592       -2.03392391285287       -2.67856793407748
H            7.46378221556022       -3.57885096611971       -2.76260954893435
H            9.75382574672266       -2.73271169934499       -3.04594351626843
H           10.18372246761658       -0.31520844580385       -3.25120843276288
N            8.03844482282735        1.57601730003297       -3.16029199799198
C            6.72577511625737        1.95744173829709       -3.04573390113433
H            8.84380273469650        2.19814062141876       -3.25044843132467
H            6.36514524548184        2.97340090053352       -3.03085093199490
