48
 energy: -9.067246200782 gnorm: 0.000676571891 xtb: 6.6.0 (2ccbbd7)
C           -0.45016385328508        0.80790594862803        2.93089548379899
C            0.31385628998146        1.87385501570365        2.51723129411130
C           -1.43327948350782        0.27144006061245        2.09821711754116
C           -1.61437770598237        0.84192551635375        0.83860278206620
C           -0.84594364543665        1.90652371944512        0.43437153885067
C            0.12447784522091        2.44435435138459        1.26643761078195
H            1.07007805006223        2.27785829747328        3.16824157745142
H           -2.36589987630118        0.42514346964828        0.19213333423045
H           -0.97451879714692        2.32820795371478       -0.54779632457971
H           -0.29726541121749        0.37639387906328        3.90387343075232
C            0.95655929175356        3.60774199802363        0.81644165547038
C            2.00299486786772        3.24297304402370       -0.24398345236241
H            1.44948669346038        4.06159533849789        1.68170074398001
H            0.30169398257840        4.38161846446375        0.40413097769871
C            1.35413957031080        2.92808624015418       -1.57509495912795
O           -2.21829324367035       -0.79785181405040        2.48591640622853
H           -1.97219341190306       -1.08415394816329        3.39216074143317
O            0.26699362318764        3.40002065707635       -1.85044705971415
N            2.98737175885972        4.30083823245828       -0.42620829405501
H            2.53984333818999        2.34123817471258        0.08856886488274
H            2.54575102524959        5.09825701430956       -0.86322369679079
H            3.36359623072836        4.60539154555164        0.46227233480418
N            2.05496481396807        2.16334764806236       -2.50446926053185
C            3.46292596272644        2.45883716142737       -2.80261161598661
H            1.56757773291823        1.95727939880795       -3.37324592209257
C            3.55743476042791        3.76563409261191       -3.54892451228493
O            4.77952250248323        4.26846256694773       -3.88288974202294
O            2.39158933055375        4.43079596013274       -3.88169137821302
H            1.63522249416906        4.12960886340183       -3.31617832770259
C            4.11034877563584        1.28110483677067       -3.56912959638543
H            3.97343388646334        2.57833483429913       -1.83749572397082
C            5.46361951406744        0.90321936471944       -3.06178548677662
H            4.16846098080673        1.52516526113052       -4.63481213570370
H            3.45276241237988        0.40815195784909       -3.49800539576829
C            6.54149596032895        1.79718089985894       -2.81237263937435
C            6.66088188020672        3.18069130013575       -2.95892812658767
C            7.83665867966839        3.78264099279238       -2.62583363066621
C            8.91946727281328        3.02883636740094       -2.14020065328280
C            8.82771992061092        1.67060592360866       -1.99033749946853
C            7.62370109599093        1.03824303963518       -2.32840341349520
H            5.67766219933000        3.75787161937489       -3.42389142902096
H            7.93506460925754        4.84889967469037       -2.74230977611508
H            9.83777343450346        3.53116376133025       -1.88526609505845
H            9.65200963341330        1.08655464359502       -1.62243996942597
N            7.21071532463120       -0.28274795507206       -2.29214231558283
C            5.91143734189652       -0.35416970226442       -2.73673249846231
H            7.79207253427293       -1.06527857278560       -1.98666799413055
H            5.33526845147573       -1.26210752606682       -2.81201098256728
