48
Energy =
C     0.8257070    1.5574241    2.6400015 
C     0.4335398    0.3504360    2.1601234 
C     1.8579468    1.6406911    3.5206499 
C     2.4869673    0.5133787    3.9210078 
C     2.1013544   -0.6958084    3.4428559 
C     1.0720748   -0.7856142    2.5549882 
H    -0.3892281    0.3044866    1.4488117 
H     3.3071251    0.5934999    4.6255714 
H     2.6254835   -1.5893619    3.7702918 
H     0.3161814    2.4567272    2.3075840 
C     0.6571126   -2.1308524    1.9941808 
C     1.3512887   -2.4771249    0.6543762 
H    -0.4470621   -2.1432122    1.8449503 
H     0.8658157   -2.9342697    2.7339795 
C     0.9704305   -1.5071390   -0.4568810 
O     2.2948319    2.8683262    4.0265992 
H     1.7896839    3.6656248    3.6521987 
O    -0.3692435   -1.3801859   -0.8052940 
N     2.8093075   -2.6091614    0.8301325 
H     0.9562416   -3.4609761    0.3129861 
H     3.2338092   -1.6851691    1.0737269 
H     3.0167996   -3.2776245    1.6082338 
N     1.9604392   -0.9567659   -1.3376244 
C     2.2709472    0.4550597   -1.0045307 
H     1.6055467   -1.0696221   -2.3125877 
C     1.1209813    1.4614856   -1.1438592 
O     1.1595554    2.5991205   -0.3491605 
O     0.1319697    1.3884174   -2.1225472 
H     0.0808690    0.4805168   -2.5525632 
C     3.5104102    0.9074936   -1.8043441 
H     2.5566479    0.5142875    0.0720709 
C     3.2720568    0.9267908   -3.3006133 
H     4.3648960    0.2399493   -1.5614201 
H     3.8151335    1.9266218   -1.4721512 
C     3.5447802   -0.0555522   -4.1753804 
C     4.0962024   -1.2798389   -3.9689782 
C     4.2540890   -2.1087026   -5.0403273 
C     3.8605883   -1.7087414   -6.2873080 
C     3.3040248   -0.4777902   -6.4700288 
C     3.1605133    0.3251995   -5.3950478 
H     4.3967747   -1.6076334   -2.9779682 
H     4.6903946   -3.0948334   -4.9002903 
H     3.9869180   -2.3768662   -7.1355281 
H     2.9792303   -0.1479029   -7.4510006 
N     2.5896945    1.6253318   -5.3660378 
C     2.6945190    1.9406663   -3.9705902 
H     2.2025446    2.1983100   -6.1510968 
H     2.3159092    2.8551146   -3.5131832 
