48
Energy =
C    -1.8697450   -1.2374822   -3.5189488 
C    -0.8656756   -0.5136931   -2.9626729 
C    -3.1615936   -0.8395695   -3.3711084 
C    -3.4391220    0.2810514   -2.6667601 
C    -2.4383846    1.0084722   -2.1087983 
C    -1.1430923    0.6157348   -2.2562659 
H     0.1606879   -0.8418130   -3.0874467 
H    -4.4736147    0.5867742   -2.5545635 
H    -2.6825883    1.9027091   -1.5415631 
H    -1.6372604   -2.1350835   -4.0814561 
C    -0.0230433    1.4112082   -1.6210792 
C     0.5020209    0.7691250   -0.3092162 
H    -0.3531892    2.4543483   -1.4161856 
H     0.8044191    1.4824448   -2.3594862 
C     1.6575361    1.5505491    0.3173568 
O    -4.2200755   -1.5628862   -3.9300898 
H    -3.9301650   -2.3867021   -4.4453414 
O     1.9853666    1.3220625    1.6511023 
N    -0.5977326    0.6188075    0.6592335 
H     0.9218937   -0.2365436   -0.5316061 
H    -1.0661316    1.5412329    0.8185505 
H    -1.3095122   -0.0612336    0.3064115 
N     2.5770141    2.3190506   -0.4816080 
C     4.0176719    2.0826079   -0.2702030 
H     2.2340627    2.9086572   -1.2721115 
C     4.7723689    3.4075225   -0.2073187 
O     5.8722873    3.6275717   -1.0302962 
O     4.4160206    4.3972470    0.7067926 
H     3.5979354    4.1246332    1.2370441 
C     4.5680270    1.1507753   -1.3747411 
H     4.2007183    1.6292529    0.7264481 
C     3.8756564   -0.1944001   -1.4202175 
H     5.6589693    0.9891487   -1.2256291 
H     4.4619703    1.6641321   -2.3572825 
C     3.9287320   -1.1719417   -0.4986410 
C     4.5915963   -1.2239416    0.6855342 
C     4.4682158   -2.3474592    1.4506751 
C     3.7002848   -3.3940161    1.0212428 
C     3.0529111   -3.3247331   -0.1759508 
C     3.1873284   -2.2018902   -0.9118396 
H     5.2057822   -0.3979801    1.0272467 
H     4.9790266   -2.4107877    2.4096634 
H     3.6038124   -4.2853489    1.6371435 
H     2.4418644   -4.1474586   -0.5324803 
N     2.6075069   -1.9357438   -2.1800655 
C     3.0992235   -0.6136125   -2.4351704 
H     1.9753688   -2.5407324   -2.7533395 
H     2.8766754   -0.0373204   -3.3308593 
