48
Energy =
C    -0.6268398    5.5910305   -5.8049947 
C    -0.0559046    4.4569787   -5.3254672 
C     0.1499728    6.6452113   -6.1723467 
C     1.4944322    6.5573837   -6.0559981 
C     2.0711769    5.4259086   -5.5772087 
C     1.2969536    4.3666316   -5.2130365 
H    -0.6894653    3.6234733   -5.0324776 
H     2.1016012    7.4067812   -6.3496206 
H     3.1547730    5.3771395   -5.4838411 
H    -1.7061729    5.6530569   -5.8924624 
C     1.9316805    3.1111149   -4.6617433 
C     1.8341257    3.0105188   -3.1177859 
H     3.0029238    3.0407554   -4.9649103 
H     1.4401282    2.2263494   -5.1220074 
C     2.4793849    1.7374779   -2.5899341 
O    -0.4063329    7.8281330   -6.6693825 
H    -1.4188003    7.8142889   -6.7244861 
O     2.3022306    1.3819818   -1.2558364 
N     2.4405877    4.1893233   -2.4785443 
H     0.7623640    2.9428686   -2.8192045 
H     3.4141451    4.3320206   -2.8484679 
H     1.8866754    5.0478244   -2.6995888 
N     3.0572711    0.7750002   -3.4867482 
C     4.4551682    0.4663030   -3.1043226 
H     2.4688084   -0.0802845   -3.3632329 
C     5.3980217    1.6491223   -3.3000685 
O     5.1668854    2.8097870   -4.0339206 
O     5.3306562    2.8650491   -2.6277830 
H     5.0146760    2.7215805   -1.6766021 
C     4.9358013   -0.7339241   -3.9484019 
H     4.5111723    0.1925036   -2.0229945 
C     6.3108560   -1.2139056   -3.5331875 
H     4.9291189   -0.4607816   -5.0266436 
H     4.2186812   -1.5769566   -3.8397762 
C     7.4930472   -0.8114734   -4.0280048 
C     7.7689968    0.0864944   -5.0091146 
C     9.0751757    0.3274610   -5.3185799 
C    10.0750764   -0.3249188   -4.6517144 
C     9.7747251   -1.2205883   -3.6687576 
C     8.4749561   -1.4419864   -3.3805228 
H     6.9775896    0.6171438   -5.5325153 
H     9.3211827    1.0490290   -6.0945427 
H    11.1138518   -0.1232683   -4.9017525 
H    10.5562649   -1.7410917   -3.1255585 
N     7.9528233   -2.3158579   -2.3891449 
C     6.5443026   -2.1020307   -2.5506178 
H     8.4610500   -2.9444538   -1.7251607 
H     5.7760180   -2.5847847   -1.9509045 
