48
Energy =
C    -2.1444738   -2.2019322   -3.4907185 
C    -0.8548681   -2.5901974   -3.3168828 
C    -2.4344296   -0.9058458   -3.7831408 
C    -1.4316516   -0.0065429   -3.8947257 
C    -0.1427679   -0.3911269   -3.7279702 
C     0.1575320   -1.6872144   -3.4395643 
H    -0.6380698   -3.6270801   -3.0756961 
H    -1.6713691    1.0284987   -4.1110302 
H     0.6398865    0.3539147   -3.8076319 
H    -2.9438439   -2.9290996   -3.3935265 
C     1.5976119   -2.1268022   -3.2454139 
C     2.1594319   -1.8586230   -1.8304664 
H     2.3640411   -1.6237330   -4.0630569 
H     1.6873675   -3.2142789   -3.4629432 
C     2.1515933   -0.3789808   -1.4546501 
O    -3.7512533   -0.4758236   -3.9750791 
H    -4.4458710   -1.2029808   -3.8464815 
O     0.9673311    0.1888301   -0.9961742 
N     1.4760812   -2.6870315   -0.8226629 
H     3.2306683   -2.1633448   -1.8475887 
H     0.4811465   -2.3709958   -0.7185910 
H     1.4669327   -3.6905435   -1.1184534 
N     3.3835253    0.2476407   -1.0765156 
C     4.0682934    1.1707772   -2.0051386 
H     3.7961997   -0.0248523   -0.1569186 
C     3.2798443    2.4513293   -2.2916116 
O     1.9360137    2.3918942   -2.6334037 
O     3.9210882    3.6879397   -2.3886422 
H     4.8936464    3.6468609   -2.1246228 
C     4.5963399    0.4464802   -3.2748539 
H     4.9786889    1.5098847   -1.4647169 
C     3.5895473    0.2277396   -4.3902843 
H     5.0279618   -0.5285678   -2.9653721 
H     5.4425652    1.0310142   -3.7001656 
C     3.1181662   -1.1158147   -4.8787212 
C     4.2149154   -2.1108214   -5.2086477 
C     4.2043939   -2.7672339   -6.3862889 
C     3.3376813   -2.4402294   -7.3735327 
C     2.4855494   -1.3943387   -7.2676893 
C     2.3680526   -0.7109927   -6.1157485 
H     4.9347967   -2.3938398   -4.4465334 
H     4.9335797   -3.5561158   -6.5604363 
H     3.4027796   -2.9687550   -8.3220894 
H     1.9653486   -1.0384523   -8.1508912 
N     2.1382517    0.6920255   -6.1226654 
C     3.0200749    1.2011645   -5.1181487 
H     1.4870693    1.2306476   -6.7388688 
H     3.2174679    2.2637582   -4.9813855 
