48
Energy =
C     1.3328331   -1.9575711   -0.6943277 
C     2.3093241   -1.7319140    0.2175416 
C     0.0382061   -1.6652048   -0.3977204 
C    -0.2717017   -1.1728825    0.8247320 
C     0.7004866   -0.9593486    1.7471192 
C     2.0003585   -1.2307103    1.4464701 
H     3.3472431   -1.9318459   -0.0484246 
H    -1.3066901   -0.9475263    1.0586326 
H     0.4305796   -0.5596423    2.7208929 
H     1.5947201   -2.3607975   -1.6655887 
C     3.1066157   -0.9278177    2.4400801 
C     3.6811134    0.5080975    2.3092078 
H     3.9373143   -1.6543184    2.2946264 
H     2.7449126   -1.0960291    3.4782562 
C     3.9106405    0.9131034    0.8590540 
O    -0.9867032   -1.8533850   -1.3328154 
H    -0.6703432   -2.2703100   -2.2014040 
O     4.8919877    0.2490604    0.1205367 
N     2.8532676    1.4917198    3.0262670 
H     4.6824142    0.5052022    2.7941049 
H     1.8609145    1.4347999    2.7037938 
H     2.8633158    1.2635306    4.0474018 
N     2.8964386    1.6356488    0.1394279 
C     3.3499631    2.7642190   -0.6839353 
H     1.8837982    1.4227280    0.2894637 
C     2.2976102    3.8501836   -0.7372652 
O     2.4463766    5.0014278    0.0197845 
O     1.1779453    3.7216983   -1.5548336 
H     1.1733938    2.7168100   -2.0941529 
C     3.7227547    2.2570359   -2.0966899 
H     4.2459800    3.2404157   -0.2192710 
C     2.6684886    1.3357086   -2.6974170 
H     4.6974170    1.7319795   -2.0034712 
H     3.8932084    3.1151990   -2.7848034 
C     2.9047110    0.1681005   -3.3201144 
C     4.0888555   -0.4697437   -3.5405128 
C     4.0793401   -1.6566554   -4.2087213 
C     2.9041647   -2.1883086   -4.6504427 
C     1.7318889   -1.5364156   -4.4233992 
C     1.7612461   -0.3624488   -3.7549083 
H     5.0350461   -0.0677623   -3.1953161 
H     5.0141198   -2.1828590   -4.3904148 
H     2.9041307   -3.1358995   -5.1841263 
H     0.7898024   -1.9505499   -4.7665618 
N     0.6241098    0.4235192   -3.4234930 
C     1.1646786    1.5924661   -2.6964949 
H    -0.3609055    0.1859649   -3.7043147 
H     0.2043601    2.1353903   -2.5329410 
