48
Energy =
C     0.6624927    0.6969242   -8.4240799 
C     1.5872016    0.6001746   -7.4354582 
C    -0.3250796    1.6287081   -8.3476993 
C    -0.3801694    2.4581740   -7.2810006 
C     0.5411745    2.3655583   -6.2889201 
C     1.5336863    1.4365020   -6.3625459 
H     2.3688455   -0.1526255   -7.5094563 
H    -1.1725342    3.1971734   -7.2326707 
H     0.4777763    3.0408342   -5.4393072 
H     0.7143363    0.0261471   -9.2750469 
C     2.5550710    1.3146144   -5.2550720 
C     2.2346402    0.1367833   -4.3008336 
H     2.6217024    2.2694208   -4.6886899 
H     3.5677428    1.1880328   -5.7078803 
C     3.4630617   -0.3210981   -3.5271380 
O    -1.2946587    1.7536677   -9.3476704 
H    -1.1811830    1.1006145  -10.1154323 
O     4.0730006   -1.5179217   -3.8859794 
N     1.1274527    0.4900839   -3.3964228 
H     1.9352900   -0.7535395   -4.9050603 
H     1.3333358    1.3956556   -2.9102858 
H     0.2510516    0.6251493   -3.9534716 
N     3.8326902    0.2937204   -2.2839121 
C     4.9984409    1.1981837   -2.2606074 
H     3.2483207    0.0923309   -1.4428880 
C     4.7178748    2.4853649   -3.0289727 
O     5.1842975    2.6535442   -4.3286930 
O     3.8827740    3.4683066   -2.5011029 
H     3.5808275    3.2363833   -1.5669199 
C     6.2596182    0.4504012   -2.7486332 
H     5.1765854    1.5046418   -1.2057722 
C     7.5239760    1.1956909   -2.3853400 
H     6.2176836    0.3035170   -3.8510178 
H     6.2854662   -0.5712966   -2.3096879 
C     8.1882902    1.1325035   -1.2214124 
C     7.9337332    0.3902142   -0.1133748 
C     8.7692545    0.5173355    0.9574704 
C     9.8318280    1.3771757    0.9063458 
C    10.0646708    2.1157488   -0.2160365 
C     9.2256904    1.9699260   -1.2629979 
H     7.0879644   -0.2896557   -0.0714372 
H     8.5888334   -0.0673890    1.8562672 
H    10.4924984    1.4741364    1.7641697 
H    10.8994607    2.8058952   -0.2722829 
N     9.2797569    2.6503360   -2.5087155 
C     8.1357342    2.0954632   -3.1741216 
H     9.9662265    3.3607249   -2.8508397 
H     7.7903723    2.3869071   -4.1657021 
