48
 energy: -9.276331190781 gnorm: 0.000653686123 xtb: 6.6.0 (2ccbbd7)
C           -1.95506705143674       -1.34347418206402       -3.99596994578863
C           -0.64952237108688       -0.93065107112432       -3.87656774902684
C           -2.25282875890007       -2.66668183642172       -4.32200217925196
C           -1.19335408584884       -3.55170755146848       -4.51783931147354
C            0.10891630040625       -3.13045938746767       -4.39206174276547
C            0.40295808045898       -1.81231324320877       -4.07252064812654
H           -0.43073370828769        0.08334073446923       -3.58658292108660
H           -1.42258180747511       -4.57247688221333       -4.76661008277121
H            0.91504920427286       -3.82781229645783       -4.54240482204486
H           -2.75972380543014       -0.65009649873678       -3.82852605479310
C            1.82530434079526       -1.36359552899522       -3.92117115926256
C            2.26084256799727       -1.11640760829367       -2.46338742288797
H            1.97402288128559       -0.44987165951312       -4.50525974736437
H            2.47906200477334       -2.11575067075978       -4.37528547251882
C            1.75390762213144        0.21403539665335       -1.95705275434804
O           -3.55267444334592       -3.11706300393851       -4.45006505305448
H           -4.18198277667169       -2.38772409389249       -4.26380852633910
O            0.57493510523376        0.28839700977018       -1.67994425114044
N            1.77991334596441       -2.14723068823862       -1.55889354251871
H            3.35761332270124       -1.12002672034774       -2.40637137283122
H            0.81247522291877       -1.92923806897841       -1.34280991442554
H            1.81186174440219       -3.06072802807602       -1.99522520695504
N            2.59262381222980        1.30258745444136       -1.82948225653519
C            4.05796427938950        1.26274991215841       -1.87357764934353
H            2.22844095072382        2.15746722543915       -1.40208610179302
C            4.60424582413053        2.45939951329755       -1.11438885905507
O            3.88545864524742        3.42578811912051       -0.98626806876901
O            5.87520636594588        2.36035105247275       -0.64707297220931
H            6.29369676375290        1.52955139867162       -0.95955036844337
C            4.58209056366885        1.23490342866105       -3.30952502113047
H            4.37772449039024        0.36043863855162       -1.33901770828824
C            6.06832653075700        1.12708560548641       -3.39891965683984
H            4.25159044601667        2.14942045664963       -3.81085754919929
H            4.12702160824771        0.41017993257865       -3.86395726023564
C            6.88662630592798        0.09672634418589       -2.84197667900102
C            6.60005079342036       -1.08125302335397       -2.12949906604546
C            7.63960585071072       -1.84176055409855       -1.67111590342425
C            8.97280839934230       -1.46603343786210       -1.90027366533326
C            9.27673369147216       -0.32614513323990       -2.59195341120392
C            8.22651975588391        0.46753992306757       -3.06925736867942
H            5.58144976928876       -1.38164543293012       -1.96479889490018
H            7.43493170528354       -2.74715744015568       -1.12404461805529
H            9.76812731658906       -2.08723893295061       -1.52279582506388
H           10.29433294271771       -0.02652867632366       -2.76775660552343
N            8.21702448210723        1.66879161974119       -3.75494292897781
C            6.91579046705772        2.06397092233287       -3.93799020276639
H            9.05102143258271        2.20233679811086       -4.00678622191558
H            6.61297276825165        2.99141561884593       -4.39712360181530
