48
Energy =
C     2.5036681    5.5225984   -6.2025267 
C     2.3354083    5.1402819   -4.9113685 
C     1.4312679    5.6209834   -7.0316935 
C     0.1947168    5.3400232   -6.5615946 
C     0.0185584    4.9589438   -5.2707973 
C     1.0887232    4.8582205   -4.4358065 
H     3.2100897    5.0595547   -4.2645707 
H    -0.6522973    5.4227392   -7.2342532 
H    -0.9837714    4.7317472   -4.9161399 
H     3.4994648    5.7454968   -6.5707752 
C     0.9041303    4.3947243   -3.0066753 
C     1.2444746    2.8911607   -2.8527635 
H    -0.1309077    4.5895576   -2.6488737 
H     1.5642996    5.0050678   -2.3426800 
C     1.5395793    2.5389788   -1.4065680 
O     1.5724076    6.0042991   -8.3687794 
H     2.5260963    6.2206667   -8.6373178 
O     0.6236349    2.9057144   -0.4261646 
N     0.1630674    2.0458380   -3.3983274 
H     2.1972575    2.6777227   -3.3869646 
H    -0.7389668    2.2578920   -2.9061492 
H     0.0302428    2.2438133   -4.4179336 
N     2.4696556    1.4893289   -1.1061485 
C     3.9177689    1.7798432   -0.9737611 
H     2.0974106    0.5150198   -1.0706346 
C     4.3228201    3.2536979   -1.1336632 
O     3.8232466    4.0174830   -2.1804317 
O     5.2749185    3.8443790   -0.3078053 
H     5.6065396    3.2220146    0.4119283 
C     4.7299105    0.8500758   -1.9064199 
H     4.1951056    1.5111455    0.0679870 
C     4.3395335    0.9762251   -3.3651665 
H     4.5795183   -0.2036962   -1.5836354 
H     5.8172974    1.0528643   -1.7892314 
C     4.8339448    1.8378831   -4.2714751 
C     5.8054876    2.7779734   -4.1454816 
C     6.1092121    3.5478157   -5.2296782 
C     5.4464924    3.3684815   -6.4119236 
C     4.4723092    2.4210384   -6.5156710 
C     4.1916306    1.6708930   -5.4295320 
H     6.3203909    2.9363959   -3.2021673 
H     6.8788752    4.3115931   -5.1485740 
H     5.6950133    3.9858788   -7.2712723 
H     3.9318744    2.2704805   -7.4441792 
N     3.2092726    0.6509299   -5.3242681 
C     3.3734054    0.2511300   -3.9576684 
H     2.5416242    0.2950544   -6.0464863 
H     2.7722338   -0.5088392   -3.4639485 
