48
Energy =
C     1.0081693   -2.6123345   -2.0698966 
C     1.6476281   -1.8126458   -1.1775852 
C    -0.3289408   -2.4773515   -2.2743262 
C    -1.0179053   -1.5399868   -1.5866036 
C    -0.3858181   -0.7408387   -0.6909738 
C     0.9524039   -0.8750411   -0.4775987 
H     2.7188610   -1.9282146   -1.0234002 
H    -2.0835671   -1.4407397   -1.7602748 
H    -0.9590795    0.0052859   -0.1475778 
H     1.5665179   -3.3594081   -2.6219980 
C     1.6583956    0.0145078    0.5254840 
C     2.3338281    1.2553341   -0.1106871 
H     2.4232497   -0.5820912    1.0740815 
H     0.9395732    0.3536873    1.3033869 
C     3.5229116    0.8937699   -0.9903917 
O    -1.0195546   -3.2908321   -3.1781624 
H    -0.4259157   -3.9456444   -3.6748643 
O     4.4574319   -0.0097023   -0.4907276 
N     1.3425094    2.0868784   -0.8190158 
H     2.7821346    1.8600868    0.7121150 
H     0.9382340    1.5535261   -1.6256831 
H     0.5511564    2.3220626   -0.1747731 
N     3.9446216    1.8001468   -2.0189323 
C     4.7868716    1.2713743   -3.1139455 
H     3.5460544    2.7684163   -2.0235020 
C     5.1387564    2.3390727   -4.1480085 
O     4.3295994    3.4589416   -4.3034413 
O     6.2520279    2.2047090   -4.9774160 
H     6.7653656    1.3549810   -4.7996281 
C     4.1675691    0.0078389   -3.7722718 
H     5.7641423    0.9764038   -2.6678392 
C     2.7527792    0.1255957   -4.3167947 
H     4.1797107   -0.8182678   -3.0286052 
H     4.8254637   -0.3223203   -4.6067393 
C     2.0786418   -0.8811060   -4.8966289 
C     2.4744824   -2.1577156   -5.1453943 
C     1.6006341   -2.9978601   -5.7699047 
C     0.3580034   -2.5560609   -6.1313248 
C    -0.0177710   -1.2720023   -5.8693112 
C     0.8655359   -0.4595955   -5.2526128 
H     3.4643801   -2.5067755   -4.8656008 
H     1.8963308   -4.0216237   -5.9884712 
H    -0.3354264   -3.2294126   -6.6291392 
H    -0.9991283   -0.9060406   -6.1489404 
N     0.6844247    0.9064741   -4.9132639 
C     1.9558224    1.2134028   -4.3216590 
H    -0.1536740    1.5167283   -5.0495396 
H     2.2258841    2.1982023   -3.9532643 
