48
Energy =
C     5.5579842    0.0533213    2.3188842 
C     4.3614155    0.6900692    2.2414567 
C     5.6592624   -1.2578066    1.9714874 
C     4.5599274   -1.9240657    1.5513910 
C     3.3612047   -1.2937631    1.4767981 
C     3.2530727    0.0178061    1.8271729 
H     4.2986908    1.7430713    2.5072104 
H     4.6499703   -2.9681802    1.2718461 
H     2.4906809   -1.8431173    1.1239073 
H     6.4345675    0.5989249    2.6520380 
C     1.9226860    0.7325870    1.7146456 
C     1.7820826    1.4863913    0.3731293 
H     1.8188804    1.4514108    2.5569156 
H     1.0848060    0.0065525    1.8207005 
C     1.9075996    0.5443675   -0.8201949 
O     6.8786295   -1.9404539    2.0305068 
H     7.6515197   -1.3719988    2.3597462 
O     1.1780198   -0.6404294   -0.8388052 
N     0.4959774    2.1984171    0.3355683 
H     2.5992453    2.2386977    0.2988013 
H    -0.2948370    1.5131384    0.4087042 
H     0.4262185    2.8602389    1.1439220 
N     2.6378077    0.9151022   -2.0002649 
C     4.1052798    0.8835428   -1.7919065 
H     2.2931818    1.8572291   -2.3041342 
C     4.6872621    2.2480361   -1.4047772 
O     4.2816377    3.3904091   -2.0809068 
O     5.6928769    2.3685847   -0.4470081 
H     6.0184972    1.4696821   -0.1273547 
C     4.7413692    0.3669784   -3.0920816 
H     4.3642533    0.1607625   -0.9835500 
C     6.2434569    0.2366617   -2.9691261 
H     4.4766344    1.0531596   -3.9290098 
H     4.3004537   -0.6220789   -3.3481070 
C     6.9123837   -0.7349713   -2.3305517 
C     6.4435299   -1.8380885   -1.6934557 
C     7.3399898   -2.6544239   -1.0695034 
C     8.6752054   -2.3598906   -1.0917026 
C     9.1224886   -1.2457021   -1.7374887 
C     8.2163457   -0.4547912   -2.3492095 
H     5.3818915   -2.0669308   -1.6625067 
H     6.9898892   -3.5335425   -0.5328079 
H     9.3803468   -3.0104646   -0.5802268 
H    10.1766679   -0.9903902   -1.7523573 
N     8.4633061    0.7684801   -3.0279709 
C     7.1293027    1.1592105   -3.3849231 
H     9.3729162    1.2500089   -3.2156732 
H     6.8642305    2.1054990   -3.8576704 
