48
Energy =
C    -1.5074310    1.3679616    0.2116071 
C    -0.2937242    0.7656944    0.2815867 
C    -2.6404362    0.6179427    0.1618918 
C    -2.5498430   -0.7314107    0.1761805 
C    -1.3382343   -1.3393375    0.2418121 
C    -0.2011948   -0.5932501    0.3040497 
H     0.6038613    1.3781518    0.3062310 
H    -3.4606416   -1.3183582    0.1281032 
H    -1.2866908   -2.4249808    0.2400815 
H    -1.5687981    2.4505365    0.1896077 
C     1.1527924   -1.2700379    0.3498709 
C     1.7401689   -1.4661843   -1.0645919 
H     1.0563440   -2.2618386    0.8448147 
H     1.8544823   -0.6798779    0.9793257 
C     2.0953841   -0.1386240   -1.7267504 
O    -3.9077222    1.2063504    0.0959139 
H    -3.8904329    2.2196797    0.0539220 
O     1.2609944    0.3609852   -2.7196175 
N     2.9018490   -2.3766814   -1.0068962 
H     0.9553057   -1.9179624   -1.7209442 
H     3.4817255   -2.1919086   -0.1535619 
H     2.5539700   -3.3614486   -0.9147561 
N     3.2009898    0.6697619   -1.2666699 
C     4.1245487    1.0441174   -2.3662398 
H     3.7339728    0.1227899   -0.5542272 
C     3.5662391    2.1866525   -3.2271868 
O     3.8197544    2.2184386   -4.5932966 
O     2.9254241    3.2857251   -2.6535250 
H     2.7180724    3.1201580   -1.6809513 
C     4.5554718   -0.2085230   -3.1889394 
H     5.0310232    1.4875617   -1.8968580 
C     5.8899247   -0.0207185   -3.8830846 
H     3.7563728   -0.4676046   -3.9173193 
H     4.6367685   -1.0939387   -2.5191098 
C     6.1217058    0.0897647   -5.2040177 
C     5.2563470    0.0783403   -6.2519817 
C     5.7609537    0.2031167   -7.5128228 
C     7.1075740    0.3317151   -7.7088812 
C     7.9584656    0.3385644   -6.6445283 
C     7.4355151    0.2170163   -5.4062329 
H     4.1841616   -0.0097427   -6.1064435 
H     5.0860254    0.2075587   -8.3655477 
H     7.5005434    0.4334814   -8.7173859 
H     9.0293860    0.4408665   -6.7831370 
N     8.1461764    0.1935252   -4.1765777 
C     7.0721273    0.0346927   -3.2424654 
H     9.1755248    0.2664897   -4.0061214 
H     7.2041026   -0.0392395   -2.1655167 
