48
Energy =
C    -0.0480492   -0.7523499    2.5320088 
C     1.2941316   -0.8125070    2.7310404 
C    -0.7366012    0.3740279    2.8566674 
C    -0.0770948    1.4347552    3.3749650 
C     1.2646930    1.3820840    3.5724055 
C     1.9595430    0.2564131    3.2521761 
H     1.8416666   -1.7168723    2.4568160 
H    -0.6388560    2.3276848    3.6276994 
H     1.7752805    2.2470476    3.9876541 
H    -0.5700242   -1.6049606    2.1098863 
C     3.4596668    0.1941899    3.4610520 
C     4.2772684    0.4649830    2.1739233 
H     3.7306481   -0.8145202    3.8493131 
H     3.7718265    0.9083287    4.2545110 
C     3.9187693   -0.5010842    1.0460654 
O    -2.1186135    0.4675216    2.6684111 
H    -2.5372131   -0.3582586    2.2542446 
O     4.0700952   -1.8622063    1.2776075 
N     4.1905602    1.8838192    1.7794201 
H     5.3431193    0.2322961    2.4023897 
H     3.1902918    2.1780502    1.6822455 
H     4.6047440    2.4768987    2.5365969 
N     3.1454707   -0.0971054   -0.0948688 
C     3.9943318    0.5607033   -1.1148806 
H     2.3771309    0.5231281    0.2460662 
C     3.2390093    1.6841839   -1.8295611 
O     2.2134573    1.3757379   -2.7150741 
O     3.5056132    3.0284536   -1.5654650 
H     4.2163574    3.1451117   -0.8586282 
C     4.4708916   -0.5239495   -2.1023960 
H     4.8966023    1.0241087   -0.6501480 
C     5.5696518   -0.0189171   -3.0124117 
H     3.6076345   -0.9150047   -2.6841508 
H     4.8594617   -1.3939802   -1.5254442 
C     5.4459995    0.4332222   -4.2716259 
C     4.3467954    0.5304515   -5.0633683 
C     4.4953547    1.0366338   -6.3209616 
C     5.7261829    1.4317074   -6.7661679 
C     6.8166232    1.3235075   -5.9556104 
C     6.6442085    0.8205845   -4.7150706 
H     3.3657509    0.2213027   -4.7166218 
H     3.6277609    1.1300669   -6.9700761 
H     5.8347215    1.8366302   -7.7692369 
H     7.7996243    1.6345468   -6.2925350 
N     7.6417101    0.6312846   -3.7213436 
C     6.8603832    0.0879421   -2.6499115 
H     8.6668296    0.8341103   -3.7629022 
H     7.2591697   -0.1888204   -1.6763169 
