48
Energy =
C    -2.7005126   -0.6008541   -0.4451960 
C    -1.5512840   -1.3183269   -0.3697021 
C    -2.6949954    0.7298673   -0.1653330 
C    -1.5363499    1.3348229    0.1826277 
C    -0.3844643    0.6216545    0.2617336 
C    -0.3867023   -0.7131793   -0.0064207 
H    -1.5681651   -2.3791015   -0.6049450 
H    -1.5420987    2.3991777    0.3912554 
H     0.5380513    1.1294072    0.5308556 
H    -3.6231136   -1.0932342   -0.7324552 
C     0.8997915   -1.5086993    0.0562140 
C     1.5760925   -1.6137086   -1.3273307 
H     0.6828200   -2.5321113    0.4341448 
H     1.5988356   -1.0510644    0.7902174 
C     1.9937335   -0.2497102   -1.8717872 
O    -3.8636041    1.4962453   -0.2260495 
H    -4.6830870    0.9778233   -0.5223845 
O     1.2667033    0.3091622   -2.9166144 
N     2.7158596   -2.5504786   -1.2597666 
H     0.8296973   -2.0050335   -2.0612665 
H     3.2398539   -2.4439914   -0.3583558 
H     2.3467714   -3.5318341   -1.2677750 
N     3.0712005    0.5087318   -1.2791040 
C     4.0893622    0.9266407   -2.2751539 
H     3.5318316   -0.0888986   -0.5573186 
C     3.6254523    2.1243784   -3.1184168 
O     4.0809624    2.2704575   -4.4231180 
O     2.8761891    3.1647273   -2.5676916 
H     2.5112531    2.9155424   -1.6615421 
C     4.5709450   -0.2868840   -3.1280853 
H     4.9585655    1.3276217   -1.7072956 
C     5.9633861   -0.0887073   -3.6938654 
H     3.8343373   -0.4888028   -3.9360726 
H     4.5816620   -1.2104075   -2.5071879 
C     6.3100603    0.0889429   -4.9818877 
C     5.5379875    0.1545975   -6.0984940 
C     6.1513544    0.3372744   -7.3027766 
C     7.5118931    0.4465670   -7.3760800 
C     8.2679917    0.3762059   -6.2445708 
C     7.6383548    0.1982995   -5.0640869 
H     4.4558687    0.0836072   -6.0495092 
H     5.5525289    0.4040109   -8.2080722 
H     7.9918815    0.5951898   -8.3401050 
H     9.3484349    0.4626585   -6.2856065 
N     8.2399153    0.0920249   -3.7816807 
C     7.0867362   -0.0940291   -2.9528108 
H     9.2519081    0.1324059   -3.5206236 
H     7.1241171   -0.2293402   -1.8744400 
