48
Energy =
C    -3.8959240    1.3190641    1.0853016 
C    -2.5531299    1.1667142    0.9634728 
C    -4.4753217    2.5186600    0.8125552 
C    -3.7055599    3.5583584    0.4181593 
C    -2.3620205    3.4117813    0.2942307 
C    -1.7765853    2.2144774    0.5713489 
H    -2.1066236    0.1995960    1.1782803 
H    -4.1803318    4.5090567    0.2013530 
H    -1.7608438    4.2582528   -0.0285991 
H    -4.5049167    0.4782428    1.3990997 
C    -0.2818179    2.0460356    0.4132005 
C     0.1171488    1.8094169   -1.0617502 
H     0.0868206    1.2121338    1.0497945 
H     0.2237135    2.9635175    0.7946514 
C     1.6207704    1.9285150   -1.2449462 
O    -5.8562358    2.7089250    0.9272247 
H    -6.3616114    1.8833301    1.2295211 
O     2.1342881    3.1537235   -1.6485016 
N    -0.3909760    0.5108066   -1.5439308 
H    -0.3091827    2.6281397   -1.6919719 
H    -0.2278322   -0.2424539   -0.8357122 
H    -1.4277384    0.5763731   -1.6839749 
N     2.4982482    0.8673520   -0.8182744 
C     3.9377785    0.8569227   -1.1630778 
H     2.1000943    0.1175117   -0.2118811 
C     4.7014332    2.1528022   -0.8460257 
O     5.1898655    2.3295384    0.4444709 
O     5.0023866    3.1275551   -1.7949850 
H     4.3510005    3.0904942   -2.5601012 
C     4.1993895    0.1925794   -2.5436608 
H     4.4151911    0.1527592   -0.4438853 
C     3.4719302    0.8007800   -3.7275243 
H     3.8848520   -0.8732264   -2.4781266 
H     5.2931114    0.1600598   -2.7347390 
C     4.0011585    1.5430704   -4.7170425 
C     5.2741038    1.9859943   -4.8942036 
C     5.5543533    2.7327589   -6.0005474 
C     4.5727424    3.0183188   -6.9081733 
C     3.3043011    2.5592137   -6.7142494 
C     3.0506484    1.8261390   -5.6099780 
H     6.0562207    1.7722428   -4.1721478 
H     6.5631960    3.1059944   -6.1590877 
H     4.8038579    3.6144193   -7.7871476 
H     2.5140451    2.7740071   -7.4252372 
N     1.8113147    1.2471892   -5.2336570 
C     2.1741863    0.5909041   -4.0128529 
H     0.8858820    1.2794304   -5.7179407 
H     1.4950740   -0.0145775   -3.4168146 
