48
 energy: -9.252351359104 gnorm: 0.000707723374 xtb: 6.6.0 (2ccbbd7)
C           -2.05809969827462        4.86250222877914       -1.82255401773660
C           -1.12664383065861        4.18330896592346       -1.07488156311224
C           -2.01817441067012        6.25447072611880       -1.90828285718580
C           -1.00999760759554        6.92828049636780       -1.21926775944524
C           -0.08376109218238        6.23922939948328       -0.47301094157519
C           -0.13035211615784        4.85505088246577       -0.38331260427315
H           -1.14171639727015        3.10824702291576       -1.03834173784532
H           -0.97576209896228        8.00094690843663       -1.28898634647414
H            0.69205671808884        6.77357605884253        0.04765955999709
H           -2.82274202217955        4.32567926347432       -2.35512032510689
C            0.89939256972259        4.10223958222422        0.40791365826169
C            1.89105622896815        3.29839387066761       -0.45363643649156
H            0.39159136741894        3.41964681133752        1.09746285584788
H            1.44639175932312        4.81259199369447        1.03744453120901
C            1.35033492498352        1.96297620350907       -0.88515444687503
O           -2.93913877680259        6.96957386559003       -2.65056280039009
H           -3.58078511763986        6.35529226779442       -3.06878787463085
O            0.18896645064411        1.66716542503883       -0.67742845428873
N            2.27843274563355        4.06521045917334       -1.67900254540665
H            2.80260788197913        3.10239696512301        0.12720374497391
H            1.38282262858189        4.32832925562026       -2.14097924182964
H            2.68125209404391        4.97773490485301       -1.37470305121761
N            2.20295798695754        1.09158941643563       -1.52909992139804
C            3.66411232411563        1.24229749850984       -1.58309738394693
H            1.85462017508350        0.16996969622006       -1.78845871986248
C            4.05191806491327        2.64196774184018       -1.93652625610118
O            3.12166171912965        3.40890905547780       -2.60928569921220
O            5.29872511225594        3.11735655949991       -1.59734465315802
H            5.79446749849182        2.44024215211820       -1.08503342624103
C            4.29051457738939        0.24194196676868       -2.56149946230895
H            4.03561636783865        1.04148530123316       -0.56702579322753
C            3.75453932672127        0.35390616710218       -3.95051594554826
H            4.12203252511862       -0.77784705525626       -2.20014409801793
H            5.37629296886503        0.37909193031149       -2.58672847035768
C            4.06261237172816        1.36202181524978       -4.91373876402169
C            4.88098851986310        2.50527642219326       -4.88182853224356
C            4.95765848780377        3.29257149924631       -5.99662547186943
C            4.23679700004673        2.97688188859702       -7.15962605299778
C            3.42664574876753        1.87590669194305       -7.21250173996977
C            3.33243484490713        1.05820028059315       -6.07915942248544
H            5.38500180261710        2.77549538930489       -3.97067505594288
H            5.56895212416297        4.17968531029791       -5.97938636891820
H            4.31712637439019        3.61968601356254       -8.02058663872307
H            2.86257619834485        1.63149722016731       -8.09471516170438
N            2.59983070585361       -0.08751937835133       -5.82503508703519
C            2.85302621262137       -0.49800923387288       -4.53986629921025
H            1.95746443194575       -0.52688197115480       -6.48693450184691
H            2.40742685672515       -1.36033443606437       -4.07095708001119
