48
 energy: -9.063033991820 gnorm: 0.000478850067 xtb: 6.6.0 (2ccbbd7)
C           -3.22648176686336        2.19652140579494       -2.27240928089156
C           -2.31229923591761        1.70562513413485       -3.17483352641865
C           -3.16644079033751        1.82854063244350       -0.92754667103334
C           -2.15162425831675        0.96051497213033       -0.52529190074146
C           -1.24166174706504        0.47701010138121       -1.43403363036919
C           -1.31247156918236        0.83132954824361       -2.77297447631385
H           -2.36697153905825        1.99897642964048       -4.20920039995519
H           -2.09641659145654        0.68534318647522        0.51280270515708
H           -0.44230983284237       -0.16907215796032       -1.11301124538730
H           -3.99958245280954        2.87037572291145       -2.59564219268502
C           -0.31627198967352        0.29552948730083       -3.75639481617047
C            1.05600604988788        0.97276790863399       -3.66613370914533
H           -0.71311853011054        0.39448647822431       -4.77157184661548
H           -0.18435808026624       -0.77773769483169       -3.58846917802051
C            1.74855122028504        0.63105174045343       -2.36118619692313
O           -4.07388001751353        2.29919068915157        0.00253151384535
H           -4.70995863331928        2.91079934963487       -0.42763415508664
O            1.55277093378132       -0.47091059339980       -1.88368978409318
N            1.91574416473589        0.60488923679304       -4.78576184865210
H            0.89598985675706        2.06207831616861       -3.68463475033980
H            2.13983266775520       -0.37581229039924       -4.69779824175771
H            1.42112317647371        0.71465769721404       -5.66140567077328
N            2.57905090720039        1.57360592162381       -1.72365270809531
C            3.92043727187766        1.95980695286900       -2.25872213498064
H            2.70469969470457        1.39469535256441       -0.72752523999130
C            3.88394712415946        3.20503342061966       -3.09603499610621
O            4.74589019537253        4.20883486493890       -2.74188775812511
O            3.06296266128688        3.28506011417255       -4.19216888872056
H            2.69929336275044        2.38598808966076       -4.40443816030256
C            4.61281778484746        0.79735961849462       -2.98354831687156
H            4.54293890309272        2.20938590930156       -1.38411031049517
C            6.10954757945792        0.78402203488443       -2.89902363745280
H            4.30866115104150        0.78891470872122       -4.03400923502962
H            4.23638200037231       -0.14097341956141       -2.56042069213985
C            7.03245566843455        1.86723969529192       -2.72665420910611
C            6.89773423798574        3.25647998121810       -2.57446722022434
C            8.00984397053532        4.03047630345810       -2.42920631344670
C            9.29322476784820        3.46248700601790       -2.42704075209506
C            9.46312846359505        2.11402221129289       -2.57512987200701
C            8.32802430042976        1.30705641758480       -2.72649809953695
H            5.78858650068581        3.78075111229277       -2.62869858817453
H            7.89994623319150        5.09678811835031       -2.32163866877698
H           10.15413277965432        4.09991277792633       -2.31162240059827
H           10.44033763584172        1.66552658433534       -2.57960649188239
N            8.19592659064332       -0.05667375352324       -2.90216551448722
C            6.86286916403215       -0.35909516566352       -3.00909537782731
H            8.97511251446351       -0.71538790661143       -2.95461153227949
H            6.47013824124012       -1.35189126767177       -3.15869505733012
