48
Energy =
C    -0.0381709    6.0594075   -5.8198843 
C    -0.0686610    5.0537000   -4.9090872 
C     0.6233545    5.8960752   -6.9967546 
C     1.2514283    4.7261335   -7.2532846 
C     1.2243597    3.7170432   -6.3462320 
C     0.5610334    3.8747362   -5.1680252 
H    -0.6016353    5.1988158   -3.9723775 
H     1.7774730    4.6091173   -8.1943689 
H     1.7393276    2.7867456   -6.5705900 
H    -0.5438772    6.9944683   -5.6046233 
C     0.5365221    2.7606674   -4.1458923 
C     1.5158762    3.0201076   -2.9704860 
H     0.7682125    1.7811965   -4.6201891 
H    -0.5035960    2.6683189   -3.7542827 
C     1.2244096    2.0823077   -1.8238601 
O     0.6731732    6.9116906   -7.9573130 
H     0.1848986    7.7584310   -7.6870684 
O     0.0621406    2.2550919   -1.0829068 
N     2.9215153    2.8968262   -3.4116554 
H     1.3522400    4.0392095   -2.5476718 
H     3.0579298    1.9530169   -3.8463323 
H     3.0619035    3.5458770   -4.2239706 
N     1.9070644    0.8299519   -1.7468911 
C     3.3329131    0.8354512   -1.3565748 
H     1.3979992   -0.0236524   -2.0632120 
C     4.0461015    2.2098648   -1.4585045 
O     3.8062441    3.1765690   -2.4778129 
O     5.0413158    2.5307568   -0.5299939 
H     5.1771002    1.8151946    0.1663118 
C     4.1050454   -0.2418756   -2.1546754 
H     3.3625772    0.5592382   -0.2806154 
C     3.6812425   -1.6448671   -1.7788824 
H     5.1992357   -0.1428046   -1.9751841 
H     3.9554870   -0.0850114   -3.2443227 
C     4.0277367   -2.3200413   -0.6716216 
C     4.8361160   -1.9518788    0.3553957 
C     5.0273529   -2.8345762    1.3777638 
C     4.4157681   -4.0578289    1.3575835 
C     3.6099349   -4.4061559    0.3142893 
C     3.4367014   -3.5156515   -0.6848443 
H     5.3243687   -0.9825697    0.3707142 
H     5.6694992   -2.5648003    2.2130416 
H     4.5724675   -4.7559948    2.1762022 
H     3.1175706   -5.3722099    0.2823761 
N     2.6455735   -3.6781978   -1.8535120 
C     2.8590577   -2.4205704   -2.5073044 
H     2.0662797   -4.4960588   -2.1524970 
H     2.4098842   -2.1380024   -3.4566368 
