48
Energy =
C     4.2931028   -2.8662326    0.8382374 
C     3.2763879   -2.0523691    1.2162783 
C     5.5587235   -2.6250025    1.2703570 
C     5.7960908   -1.5788412    2.0941457 
C     4.7811772   -0.7654097    2.4831269 
C     3.5138021   -1.0000465    2.0473325 
H     2.2734433   -2.2330512    0.8307107 
H     6.8110458   -1.3980008    2.4324444 
H     4.9928586    0.0785521    3.1354676 
H     4.0954454   -3.7001082    0.1744983 
C     2.3923502   -0.0559237    2.4187820 
C     2.3309677    1.1552675    1.4615912 
H     2.5365000    0.3003531    3.4627487 
H     1.4156091   -0.5912754    2.4041686 
C     2.1721770    0.7229581    0.0110680 
O     6.6325909   -3.4275773    0.8739793 
H     6.3710562   -4.1996480    0.2709362 
O     1.1420169   -0.1383972   -0.3529837 
N     1.2365243    2.0523758    1.8625750 
H     3.2918324    1.7185303    1.5258762 
H     0.3206190    1.5443981    1.8037724 
H     1.3694174    2.3601853    2.8544988 
N     2.9483090    1.3405757   -1.0177227 
C     4.3730843    0.9774773   -1.1207579 
H     2.4578379    1.9523014   -1.7077495 
C     5.2356052    2.2047292   -0.8563370 
O     5.1588968    3.2896080   -1.7208558 
O     6.1047417    2.2755634    0.2341988 
H     6.1183471    1.4279083    0.7795559 
C     4.6596567    0.3946972   -2.5227232 
H     4.6440507    0.2112961   -0.3602402 
C     4.3271998   -1.0797597   -2.6021632 
H     5.7386695    0.5201346   -2.7718310 
H     4.1074638    0.9637535   -3.3027993 
C     3.1420147   -1.6340922   -2.9037600 
C     1.9597472   -1.0487405   -3.2206195 
C     0.8871839   -1.8504200   -3.4798165 
C     1.0125001   -3.2109874   -3.4260064 
C     2.2112033   -3.7779697   -3.1107960 
C     3.2558770   -2.9630943   -2.8549362 
H     1.8535710    0.0299355   -3.2534199 
H    -0.0740164   -1.4033781   -3.7216530 
H     0.1519683   -3.8424826   -3.6323647 
H     2.3276974   -4.8555083   -3.0646843 
N     4.5777991   -3.3490972   -2.5079539 
C     5.2028336   -2.0689563   -2.3460589 
H     4.9793632   -4.3067010   -2.3827840 
H     6.2403350   -1.9247944   -2.0477115 
