48
 energy: -9.290221481240 gnorm: 0.000821423311 xtb: 6.6.0 (2ccbbd7)
C           -0.63771572330064       -2.37657159672194       -3.89399028246603
C           -0.90256142391991       -1.65762594588659       -2.75192022217467
C            0.62902113972836       -2.91712514773972       -4.11407475715559
C            1.60918521700581       -2.70718019579849       -3.14716178287801
C            1.33654218179137       -1.99248053913519       -2.00688939718817
C            0.07695998381440       -1.45801208415043       -1.78855462838493
H           -1.88185220196842       -1.23809267989467       -2.59787481592753
H            2.58819798855142       -3.11056032923099       -3.32333423698622
H            2.10974198693807       -1.82813885533917       -1.27731439547597
H           -1.40547410249096       -2.52654980015460       -4.63166495873419
C           -0.20613961895940       -0.63681305691470       -0.56899584941157
C            0.50830048626234        0.72213210901476       -0.58436220008730
H            0.10403834659164       -1.19506781957510        0.32070497393884
H           -1.28658111658290       -0.48754301930858       -0.47597916596499
C            1.99105726344319        0.55038972694030       -0.35005820806697
O            0.93728712958508       -3.64286687720062       -5.24889421722705
H            0.14776009893710       -3.70802247911505       -5.82856444840362
O            2.37860207120146       -0.23413803081458        0.49230438769676
N            0.26986686093176        1.44534542153981       -1.82504120569800
H            0.13203961884364        1.34581566832164        0.24275596939286
H            0.66152750466206        0.92308473465678       -2.59751624551353
H           -0.72267848106218        1.54046552793404       -1.99800431359320
N            2.84933000686419        1.31064725586038       -1.10932532497779
C            4.25958799214599        1.40225597960391       -0.77708952078976
H            2.50414061614104        2.12373514545804       -1.64921020381759
C            4.66868891656158        2.85438958396930       -0.88426487988670
O            4.22937112593423        3.46876071964164       -1.83096459767130
O            5.50523420384774        3.34948908997387        0.06243614330979
H            5.72040607648775        2.67504799755375        0.74307296932018
C            5.12079252989055        0.54421910360552       -1.70204021669820
H            4.36719487280879        1.06725089970191        0.26307698721739
C            4.88061667389071       -0.92572464491835       -1.60042763481963
H            6.17928335495809        0.74705145680349       -1.50926387527022
H            4.93404846067296        0.87229539921940       -2.72875841876051
C            4.97377479799661       -1.86505844986207       -2.67132384499956
C            5.19919472478166       -1.72406751802794       -4.05163581817093
C            5.19824288178026       -2.84541925171268       -4.83440369845832
C            4.98475907200229       -4.11883694916084       -4.28231858208580
C            4.77049869954797       -4.28214716158090       -2.94132226443334
C            4.75923270888270       -3.14498074182253       -2.12351971295526
H            5.35850914593076       -0.74761268160078       -4.47311022528700
H            5.36092093279738       -2.75278475444869       -5.89540497459678
H            4.98690670923608       -4.98080803749684       -4.92883599048054
H            4.60127728495176       -5.25242191118352       -2.51008358175665
N            4.53244881303641       -2.98322582411780       -0.76908710135673
C            4.62236025582301       -1.64915033573666       -0.46180284286432
H            4.33844964645511       -3.74267725642685       -0.11407713931407
H            4.45685678818481       -1.23775276838698        0.52156369165066
