48
Energy =
C     1.3781308   -4.9995890    2.1932390 
C     1.3317322   -3.6623078    1.9710691 
C     2.5027824   -5.5688968    2.7031879 
C     3.5735234   -4.7937829    2.9892041 
C     3.5326477   -3.4551386    2.7695054 
C     2.4080111   -2.8803408    2.2611493 
H     0.4282721   -3.2223945    1.5567917 
H     4.4639117   -5.2605135    3.3953280 
H     4.4052829   -2.8504360    3.0007904 
H     0.5138622   -5.6110785    1.9590554 
C     2.3641845   -1.3927454    1.9842110 
C     2.5584454   -1.0686523    0.4865191 
H     3.1261445   -0.8516083    2.5862898 
H     1.3784253   -0.9960483    2.3128843 
C     2.4094626    0.4239910    0.1952707 
O     2.5862655   -6.9454078    2.9388011 
H     1.7353879   -7.4509830    2.7178648 
O     2.3306354    1.3486540    1.2320007 
N     3.8584994   -1.5509088    0.0073549 
H     1.7600350   -1.6035402   -0.0727749 
H     4.6068108   -1.2950379    0.6916197 
H     3.8240528   -2.5949530   -0.0543831 
N     2.1512143    0.8908279   -1.1380489 
C     3.3116029    1.0283537   -2.0447449 
H     1.1574948    0.9558314   -1.4525047 
C     3.6611010    2.4996301   -2.2894633 
O     4.3397306    2.8546699   -3.4498124 
O     3.4250189    3.4964083   -1.3439120 
H     2.9967402    3.1320261   -0.5038015 
C     3.0041319    0.2795432   -3.3678791 
H     4.2387949    0.6045121   -1.5880748 
C     3.2366934   -1.2077101   -3.2448922 
H     3.6309639    0.6625774   -4.2027268 
H     1.9585018    0.4798426   -3.6875536 
C     4.3719000   -1.8724558   -3.5229818 
C     5.5620652   -1.4108686   -3.9885570 
C     6.5776688   -2.3036576   -4.1684923 
C     6.3937612   -3.6273752   -3.8782340 
C     5.1932359   -4.0663339   -3.4041351 
C     4.2024609   -3.1651308   -3.2391816 
H     5.7177309   -0.3584550   -4.2079058 
H     7.5405143   -1.9594707   -4.5399406 
H     7.2096780   -4.3320253   -4.0206378 
H     5.0329359   -5.1109414   -3.1598861 
N     2.8952742   -3.4083100   -2.7354855 
C     2.3394338   -2.0793723   -2.7587688 
H     2.4779215   -4.3221905   -2.4351737 
H     1.3906173   -1.7762411   -2.3008092 
