48
Energy =
C     4.8268859    2.8933209    2.9964357 
C     4.1317673    1.7314724    2.9020467 
C     4.4456152    3.8475901    3.8872463 
C     3.3688875    3.6321363    4.6768393 
C     2.6646024    2.4760534    4.5796123 
C     3.0425272    1.5199062    3.6925042 
H     4.4483018    0.9781627    2.1874040 
H     3.0727892    4.4025041    5.3800893 
H     1.7930558    2.3247934    5.2115571 
H     5.6846357    3.0610321    2.3539409 
C     2.2170279    0.2614089    3.5814503 
C     1.2860389    0.3196149    2.3442391 
H     2.5822808   -0.7848932    3.4778952 
H     3.0255967   -0.4700818    3.8056054 
C     2.0079024   -0.0022856    1.0441728 
O     5.1427880    5.0533412    4.0146335 
H     5.8723424    5.1767094    3.3202171 
O     2.6484751   -1.2291722    0.8793323 
N     0.1409802   -0.5802134    2.5464025 
H     0.8918172    1.3595200    2.2368646 
H     0.4753521   -1.5707634    2.6246970 
H    -0.3330765   -0.3410673    3.4497676 
N     1.9640793    0.9164361   -0.0529494 
C     3.2419792    1.2853431   -0.6814867 
H     1.0444787    1.2906158   -0.3811155 
C     3.5352247    2.7683576   -0.4861710 
O     2.4934078    3.6872528   -0.5181825 
O     4.8408959    3.2412274   -0.3417078 
H     5.5239342    2.5053022   -0.4407714 
C     3.1658388    0.9211662   -2.1728476 
H     4.0754102    0.7114929   -0.2154702 
C     4.5302632    0.9463973   -2.8211015 
H     2.4764450    1.6209463   -2.6976372 
H     2.7258800   -0.0947157   -2.2815803 
C     5.4673292   -0.0111462   -2.7482382 
C     5.4313795   -1.2174566   -2.1262243 
C     6.5388627   -2.0112422   -2.1890797 
C     7.6536805   -1.5899925   -2.8609080 
C     7.6681025   -0.3708954   -3.4720136 
C     6.5588269    0.3941838   -3.3984006 
H     4.5499987   -1.5486470   -1.5824524 
H     6.5355606   -2.9820120   -1.6985929 
H     8.5338537   -2.2272872   -2.9040812 
H     8.5463962   -0.0173658   -4.0021556 
N     6.3739222    1.6949400   -3.9385679 
C     5.0356619    1.9836668   -3.5105085 
H     7.0314010    2.2849265   -4.4993691 
H     4.5229250    2.9292841   -3.6817315 
