48
Energy =
C     0.2293679    4.4249488    0.8371884 
C    -0.2728988    3.7826174   -0.2449185 
C     1.5608819    4.3880377    1.0996120 
C     2.3855965    3.6977303    0.2865260 
C     1.8941366    2.9972019   -0.7847563 
C     0.5453733    3.0813030   -1.0731208 
H    -1.3401387    3.8347676   -0.4458620 
H     3.4469861    3.7223352    0.5102509 
H     2.7413923    2.4568838   -1.6404303 
H    -0.4386828    4.9799390    1.4868843 
C    -0.0631472    2.3631384   -2.2717371 
C     0.9190680    1.4333986   -3.0239594 
H    -0.4698405    3.1187171   -2.9779267 
H    -0.9151336    1.7466866   -1.9060192 
C     1.7284093    0.6106424   -2.0272387 
O     2.1117427    5.0614541    2.1945169 
H     1.4305347    5.5595423    2.7577345 
O     1.2984339   -0.6653836   -1.6847128 
N     0.1987061    0.5917246   -3.9932140 
H     1.6474366    2.0618765   -3.5838400 
H    -0.4419484   -0.0553164   -3.4713538 
H    -0.4037929    1.1946728   -4.6009002 
N     2.5767127    1.3146840   -1.0817919 
C     4.0073285    0.8336599   -0.9262701 
H     2.1504905    0.9384876   -0.1625484 
C     5.0210689    1.9723163   -1.0400138 
O     5.5812283    2.4935547    0.1152648 
O     5.3329030    2.5666709   -2.2605092 
H     4.8390330    2.1444211   -3.0306242 
C     4.4187321   -0.3489954   -1.8702341 
H     4.1731458    0.4939939    0.1277420 
C     4.2124877   -1.7172694   -1.2400491 
H     5.5095643   -0.2852235   -2.0906935 
H     3.9411955   -0.2676340   -2.8651504 
C     3.4899911   -2.7527062   -1.7139532 
C     2.6928487   -2.8433655   -2.8109568 
C     2.0881863   -4.0365383   -3.0826447 
C     2.2929826   -5.1145339   -2.2685667 
C     3.0970333   -5.0049165   -1.1745373 
C     3.6766842   -3.8127273   -0.9220893 
H     2.4948610   -1.9802431   -3.4377973 
H     1.4285261   -4.1274344   -3.9428738 
H     1.8062044   -6.0618585   -2.4889653 
H     3.2702143   -5.8513329   -0.5177335 
N     4.5620507   -3.5060421    0.1436266 
C     4.8703730   -2.1371312   -0.1418042 
H     4.9056995   -4.1185440    0.9197975 
H     5.5822678   -1.5410305    0.4271056 
