48
Energy =
C     7.4537825   -1.2498882    2.6820559 
C     6.6036526   -1.2334650    1.6247843 
C     7.1510119   -1.9754847    3.7914333 
C     5.9964160   -2.6784459    3.8353413 
C     5.1407988   -2.6638441    2.7818543 
C     5.4416635   -1.9425775    1.6673513 
H     6.8571646   -0.6414236    0.7481935 
H     5.7654912   -3.2506946    4.7269572 
H     4.2154794   -3.2304866    2.8407209 
H     8.3743099   -0.6780182    2.6382748 
C     4.4876178   -1.9087947    0.4936991 
C     3.7551109   -0.5494074    0.3777780 
H     3.7386905   -2.7298880    0.5624900 
H     5.0668974   -2.1156287   -0.4322930 
C     3.0198489   -0.4428048   -0.9635059 
O     8.0058560   -2.0152511    4.8981664 
H     8.8423137   -1.4518269    4.7910009 
O     1.8123601   -1.1213553   -1.0970792 
N     2.8125758   -0.3827811    1.4965808 
H     4.4893796    0.2772531    0.4462103 
H     2.1406944   -1.1866314    1.5261397 
H     3.3352135   -0.3680365    2.4035932 
N     3.5799458    0.1191119   -2.1745247 
C     4.9871010    0.5882494   -2.1453464 
H     2.9118605    0.8518860   -2.4979424 
C     5.2186595    1.9184765   -1.4180485 
O     6.3120931    2.0179984   -0.5687206 
O     4.4340792    3.0545710   -1.6166319 
H     3.6649085    2.8949341   -2.2453268 
C     5.5469228    0.6062087   -3.5839589 
H     5.6105862   -0.1596274   -1.6085941 
C     4.8767441    1.6244895   -4.4826889 
H     5.4439963   -0.4093923   -4.0257580 
H     6.6408970    0.8125027   -3.5488927 
C     3.7868630    1.4379154   -5.2452009 
C     3.0267104    0.3266381   -5.4233012 
C     1.9468954    0.4057379   -6.2524203 
C     1.6452033    1.5805711   -6.8838610 
C     2.4207244    2.6845432   -6.6878900 
C     3.4843328    2.5807851   -5.8637284 
H     3.2553825   -0.6050976   -4.9134247 
H     1.3195334   -0.4693269   -6.4066910 
H     0.7803747    1.6358298   -7.5405958 
H     2.1913866    3.6258529   -7.1759319 
N     4.4009019    3.6075592   -5.5123748 
C     5.2692424    2.9048551   -4.6116286 
H     4.4318566    4.6044332   -5.8290830 
H     6.0974209    3.3584944   -4.0653658 
