48
 energy: -9.364248007588 gnorm: 0.000680082780 xtb: 6.6.0 (2ccbbd7)
C            4.31339827541269        4.59927163061687        4.01798089514642
C            4.04936929076602        3.59617481152216        3.11637096742451
C            4.76286730230663        5.84614225628628        3.58135004989496
C            4.93975436443427        6.04161746487416        2.21186421218784
C            4.67266840479764        5.03268045288407        1.31838906771947
C            4.21447503863864        3.79814264172990        1.75398842570343
H            3.70527457075281        2.64065633268109        3.46855429289632
H            5.29176876381322        7.00034844056696        1.87488071653302
H            4.82449067653331        5.18964774513240        0.26416380595726
H            4.17625946978869        4.43221355664586        5.07139228107670
C            3.96140364848556        2.71351280464694        0.75542719612826
C            2.80455140397975        1.76056280456572        1.10044222069946
H            4.88434705408655        2.14894121476915        0.60382755673270
H            3.70420977969974        3.25315017128459       -0.30073731640676
C            1.98642425562881        1.38837451492381       -0.11859618324861
O            5.03535344692823        6.87714229520785        4.45977741055543
H            4.86322708210921        6.58784671277121        5.38175768489253
O            0.78182928222312        1.54500883291071       -0.06287171181855
N            3.22633376676358        0.57151654083739        1.84130161014560
H            2.10811623799051        2.30464755932875        1.76014711884356
H            3.46146592458178       -0.18380113248029        1.21172840328841
H            4.04068677230247        0.75839849275672        2.41312853413453
N            2.57753680679809        0.91194276761457       -1.26793650507355
C            4.00469577190257        0.63902483416320       -1.48613448473092
H            1.99073180659117        0.74710000195277       -2.08093668586482
C            4.80246948666652        1.90604392285274       -1.67649454461932
O            5.94088910183110        1.82626081659616       -2.08401378290616
O            4.16925349955533        3.15973220666290       -1.31826344500972
H            3.09014499726260        3.11777928036638       -1.22289884152318
C            4.19693487919683       -0.30293767077474       -2.68383779563780
H            4.39451925886831        0.14888769411550       -0.58505033488665
C            3.44781214478378        0.12774828381928       -3.90167735107640
H            3.87270800665806       -1.31330185581751       -2.41352420004912
H            5.26356843261529       -0.37341121705980       -2.92124345459924
C            3.75679867239568        1.21641973016916       -4.77254620863275
C            4.79906325133059        2.15907650232884       -4.80329425946792
C            4.81180328481620        3.09920035474146       -5.79488622063596
C            3.80336637485356        3.13719543608001       -6.77086754963703
C            2.77101971091232        2.23981836017781       -6.75607947387213
C            2.74133085652470        1.26872795882020       -5.74708340471839
H            5.54324783812066        2.15287952627757       -4.02733426111266
H            5.60221690917615        3.83091061107937       -5.82260284458250
H            3.84152860748621        3.89156378370241       -7.53922676702885
H            1.98984544343725        2.26591207305796       -7.49442849735925
N            1.84183683785045        0.25658972292471       -5.46520961751461
C            2.27239168085569       -0.42155059764808       -4.35286208885678
H            0.98633953703642        0.07359920859913       -5.99288285666505
H            1.75429378679408       -1.25171295947311       -3.90013396479576
