48
 energy: -9.277288691859 gnorm: 0.000650153034 xtb: 6.6.0 (2ccbbd7)
C            4.65915889953499       -5.13216948704302       -1.60148856541165
C            3.72523589499805       -4.13568066524453       -1.76073939730052
C            5.40225823120257       -5.22797418174768       -0.42486191593191
C            5.16929758816642       -4.28949421306850        0.57944232752817
C            4.23200582967454       -3.29914954287417        0.41125531737487
C            3.49772257715041       -3.19874091643719       -0.76206268409819
H            3.15520272159135       -4.07475001935055       -2.67204725293174
H            5.73883196242143       -4.36444695684919        1.48858442382236
H            4.06322334069761       -2.58992415195333        1.20068838712075
H            4.82503099139462       -5.85034001264055       -2.38436163298422
C            2.45833388527476       -2.13540718522377       -0.96709125385934
C            2.60632881027323       -0.90333199110637       -0.06291963131104
H            1.46227960490551       -2.56210462306148       -0.81639038350133
H            2.47838756357148       -1.81717937258894       -2.01407255544819
C            1.79190292436749        0.24737756434238       -0.60349767418890
O            6.34821768469159       -6.21632205158551       -0.23139338619507
H            6.39325419425322       -6.79939970329489       -1.01951904774169
O            0.58585507771658        0.15409622563616       -0.50433281127098
N            2.15262742725914       -1.16319876681735        1.31026672408493
H            3.66397154047460       -0.60986612756186       -0.01489333448570
H            1.26614305286476       -0.67995083520545        1.43320185545673
H            1.95665032359461       -2.14656318401212        1.45181282449948
N            2.38467864992773        1.35108235164073       -1.17831197890354
C            3.81667118647968        1.52454581159609       -1.44099817137896
H            1.79950507032533        2.13864399137890       -1.44748526699144
C            4.07983316230220        2.97541281717273       -1.80475780317253
O            4.89894740892141        3.57638069312033       -1.14342424752463
O            3.38156900558604        3.50111525610183       -2.84464446932055
H            2.88678471805132        2.81261586430601       -3.34053320461106
C            4.32799863286325        0.56961022811204       -2.52692542914919
H            4.34561594724957        1.34246380219794       -0.49449879629991
C            3.57246381200426        0.72526604046754       -3.80127873639782
H            4.25294686070962       -0.46799171521751       -2.19279821151225
H            5.39171769115072        0.75352680978289       -2.70535524692949
C            4.05410978596039        1.33702500466975       -5.00070368599898
C            5.32431068319669        1.78448497638104       -5.40407165704944
C            5.44667354163358        2.40760672582419       -6.61507368421807
C            4.33226962972298        2.60922430142595       -7.44542173821046
C            3.08411318153988        2.19671195491604       -7.06736483936628
C            2.93722453363221        1.55839294709605       -5.82967662383623
H            6.17287256770128        1.64873717724845       -4.75748996340215
H            6.41304065184768        2.76044799886726       -6.93529265238510
H            4.46324338414620        3.10824757562925       -8.39135072017564
H            2.22170722988300        2.36399847613885       -7.68743535496901
N            1.82075208403700        1.11083909147476       -5.14573362167371
C            2.21124201893803        0.58750255530972       -3.94055520321009
H            0.86329835067220        1.16357977223192       -5.49873660994251
H            1.53041365168466        0.24902803676100       -3.17552720859443
