48
Energy =
C    -1.6043102   -0.7770869    2.1041599 
C    -0.4332639   -0.5345114    1.4625062 
C    -2.6988100   -1.1747050    1.4017705 
C    -2.6138711   -1.3246342    0.0603720 
C    -1.4455643   -1.0832199   -0.5864153 
C    -0.3459327   -0.6906012    0.1130115 
H     0.4334177   -0.2135692    2.0357249 
H    -3.4949593   -1.6386174   -0.4883449 
H    -1.3987712   -1.2043521   -1.6652344 
H    -1.6634722   -0.6509963    3.1798304 
C     0.9557103   -0.4078939   -0.6008423 
C     1.1742473    1.1020734   -0.8323860 
H     0.9866172   -0.9405835   -1.5719359 
H     1.7943399   -0.8213626    0.0049109 
C     2.6123688    1.3947087   -1.2200888 
O    -3.9201315   -1.4346464    2.0317957 
H    -3.9048052   -1.2907662    3.0356251 
O     3.4919750    1.8364419   -0.2363573 
N     0.2213895    1.6258565   -1.8282015 
H     1.0322553    1.6445477    0.1341652 
H     0.1502975    0.9810319   -2.6489233 
H    -0.7325327    1.6760524   -1.3977710 
N     3.1148859    1.1291092   -2.5414078 
C     4.5103111    0.6565524   -2.6589874 
H     2.4553902    1.1469498   -3.3506313 
C     5.3976616    1.7345085   -3.2768327 
O     6.1648346    1.4447446   -4.4004036 
O     5.5104645    3.0017111   -2.7098865 
H     4.8889564    3.1107798   -1.9192582 
C     4.5532590   -0.6570546   -3.4783803 
H     4.9611036    0.4759886   -1.6570677 
C     3.6486702   -1.7356820   -2.9248842 
H     5.5965684   -1.0448216   -3.5139100 
H     4.2716983   -0.4347525   -4.5332015 
C     3.8067658   -2.4201602   -1.7804780 
C     4.7860620   -2.3402147   -0.8432238 
C     4.7004022   -3.1458229    0.2540348 
C     3.6527158   -4.0133126    0.3944466 
C     2.6870279   -4.0849689   -0.5647926 
C     2.7948491   -3.2793917   -1.6416749 
H     5.6249812   -1.6607870   -0.9540535 
H     5.4705672   -3.0988502    1.0208869 
H     3.5916615   -4.6517931    1.2725576 
H     1.8510394   -4.7699980   -0.4704730 
N     1.9017894   -3.1964954   -2.7430617 
C     2.5281870   -2.1726834   -3.5274025 
H     1.0227270   -3.7342189   -2.9234291 
H     2.1434154   -1.8021006   -4.4753808 
