48
Energy =
C     3.4816161    2.0634124    5.6324262 
C     3.1230688    1.1103232    4.7356428 
C     4.5812210    2.8323528    5.4104320 
C     5.3149936    2.6414990    4.2902362 
C     4.9611293    1.6898969    3.3902119 
C     3.8633531    0.9156407    3.6094425 
H     2.2386221    0.5077658    4.9247705 
H     6.1893054    3.2607271    4.1220373 
H     5.5632606    1.5527359    2.4942100 
H     2.8857166    2.2098599    6.5264406 
C     3.4610616   -0.1322367    2.5957946 
C     2.7509745    0.4848246    1.3681537 
H     2.8104574   -0.9083829    3.0585819 
H     4.3795602   -0.6684378    2.2615487 
C     2.5866612   -0.5502292    0.2713813 
O     4.9765280    3.8241050    6.3147042 
H     4.3782732    3.9013121    7.1296344 
O     1.9160744   -1.7390634    0.5355842 
N     1.4441251    1.0499503    1.7446594 
H     3.3928811    1.2934475    0.9433105 
H     0.8586107    0.3128606    2.2068118 
H     1.5769535    1.8293815    2.4307219 
N     2.8433310   -0.2004189   -1.0906408 
C     4.2119568   -0.4403939   -1.5846324 
H     2.0575830    0.2024395   -1.6477517 
C     5.1850554    0.6254329   -1.1099296 
O     5.9173736    0.4153314    0.0517382 
O     5.3279255    1.8326992   -1.7862972 
H     4.5667329    1.9260071   -2.6324822 
C     4.2132266   -0.5951086   -3.1209909 
H     4.5915722   -1.4014714   -1.1630319 
C     3.5268939    0.5474137   -3.8604044 
H     3.7330136   -1.5678174   -3.3487656 
H     5.2630666   -0.6644405   -3.4848060 
C     2.6704703    0.4132532   -4.8866358 
C     2.2083852   -0.7212548   -5.4842480 
C     1.3379847   -0.6057887   -6.5261792 
C     0.9448624    0.6257652   -6.9603796 
C     1.4224573    1.7471829   -6.3554754 
C     2.2835581    1.6108352   -5.3225216 
H     2.5123495   -1.7095172   -5.1592525 
H     0.9561684   -1.4994171   -7.0149902 
H     0.2508649    0.7121296   -7.7931571 
H     1.1220048    2.7334096   -6.6936675 
N     2.8777424    2.6778435   -4.5984189 
C     3.7206751    2.0356753   -3.5759458 
H     2.7258441    3.6986493   -4.7833883 
H     4.1113782    2.9810285   -3.1354544 
