48
Energy =
C    -0.6684527   -4.3543614   -2.7053485 
C    -0.2527492   -3.1016889   -2.3902576 
C     0.0032881   -5.0836538   -3.6359210 
C     1.0878136   -4.5532383   -4.2453081 
C     1.5086341   -3.3011819   -3.9337816 
C     0.8378222   -2.5659746   -3.0053197 
H    -0.7975291   -2.5340617   -1.6403725 
H     1.6142736   -5.1455569   -4.9855550 
H     2.3831132   -2.8925479   -4.4332745 
H    -1.5383703   -4.7714498   -2.2098075 
C     1.3183378   -1.1775087   -2.6453960 
C     2.5284901   -1.2046730   -1.6787229 
H     0.4949254   -0.5739843   -2.2011148 
H     1.6015681   -0.6471837   -3.5828464 
C     3.1476134    0.1802846   -1.4907774 
O    -0.3972405   -6.3781753   -3.9824963 
H    -1.2209045   -6.7007987   -3.4864185 
O     2.5784282    1.2882788   -2.1129007 
N     2.1420451   -1.7771486   -0.3784011 
H     3.3289457   -1.8343862   -2.1280568 
H     1.3093468   -1.2691823    0.0057353 
H     1.8731966   -2.7823586   -0.4962974 
N     4.3465250    0.3544007   -0.7022504 
C     5.5280700    0.8684126   -1.4527708 
H     4.5809048   -0.5661003   -0.2626454 
C     5.7131698    2.3867436   -1.3178776 
O     6.9492037    2.9330584   -1.6405720 
O     4.7133115    3.2605662   -0.8951820 
H     3.8629213    2.7767820   -0.6573737 
C     5.5595284    0.3968587   -2.9358557 
H     6.4392082    0.4600834   -0.9559607 
C     6.9392634    0.5148192   -3.5501892 
H     4.8333890    0.9933123   -3.5355256 
H     5.2391762   -0.6629748   -3.0075088 
C     7.9272915   -0.3913556   -3.4806979 
C     7.9512120   -1.6087146   -2.8788020 
C     9.0991604   -2.3423824   -2.9462787 
C    10.1942205   -1.8529412   -3.6033397 
C    10.1483465   -0.6259392   -4.1959529 
C     9.0005609    0.0793779   -4.1180466 
H     7.0863695   -1.9956114   -2.3484261 
H     9.1456177   -3.3195341   -2.4711783 
H    11.1070576   -2.4418380   -3.6492166 
H    11.0101123   -0.2194355   -4.7145539 
N     8.7503820    1.3727314   -4.6483625 
C     7.3948155    1.5847460   -4.2265615 
H     9.3789482    1.9948088   -5.2068657 
H     6.8380916    2.5109611   -4.3696164 
