48
Energy =
C    -1.9376650    1.8471691   -4.6582297 
C    -1.0342029    0.8669843   -4.3933394 
C    -3.1363879    1.8611391   -4.0200245 
C    -3.4258768    0.8945779   -3.1204357 
C    -2.5268586   -0.0852725   -2.8499342 
C    -1.3209183   -0.1048323   -3.4835532 
H    -0.0780701    0.8631919   -4.9135943 
H    -4.3873033    0.9167926   -2.6188399 
H    -2.7809422   -0.8510275   -2.1223025 
H    -1.7021006    2.6219183   -5.3797345 
C    -0.3121298   -1.1956708   -3.1706531 
C     0.7236997   -0.8156310   -2.0732508 
H     0.2207875   -1.4840560   -4.1043586 
H    -0.8503118   -2.1136790   -2.8477063 
C     1.8512188    0.0969636   -2.5719819 
O    -4.0868377    2.8548418   -4.2707687 
H    -3.7956250    3.5504681   -4.9486177 
O     1.9615539    0.4205899   -3.9186402 
N     0.0553747   -0.2660229   -0.8809614 
H     1.2311251   -1.7529107   -1.7658745 
H    -0.3595219    0.6701524   -1.1064266 
H    -0.7245355   -0.8977906   -0.5853359 
N     2.8009678    0.6828526   -1.6693243 
C     4.1092507   -0.0062755   -1.4944687 
H     2.3406289    0.8614695   -0.7475072 
C     5.2685519    0.9559576   -1.7071436 
O     6.4782499    0.6878693   -1.0804268 
O     5.2097131    2.0198913   -2.6080645 
H     4.2906948    2.1014351   -3.0265580 
C     4.3153246   -1.3418705   -2.2774157 
H     4.1955786   -0.2846210   -0.4182421 
C     4.3584670   -1.2450321   -3.7995461 
H     3.5463902   -2.0609716   -1.9422096 
H     5.2819449   -1.7885020   -1.9525187 
C     3.6359847   -1.9778082   -4.6717281 
C     2.6786406   -2.9199275   -4.4480509 
C     2.1070201   -3.5362241   -5.5217001 
C     2.4999138   -3.2174514   -6.7901664 
C     3.4703786   -2.2833929   -6.9936424 
C     4.0173798   -1.6822015   -5.9170150 
H     2.3611269   -3.1911123   -3.4493210 
H     1.3365911   -4.2889466   -5.3691692 
H     2.0420960   -3.7155011   -7.6417037 
H     3.8030329   -2.0274552   -7.9939456 
N     5.0640168   -0.7253205   -5.9185509 
C     5.2368332   -0.5078914   -4.5119703 
H     5.5830965   -0.3099787   -6.7262276 
H     6.0197820    0.1211003   -4.0953617 
