48
Energy =
C    -1.7107349   -0.3356841   -1.2416301 
C    -0.8442869   -0.0080960   -0.2487244 
C    -1.8286127   -1.6283739   -1.6462742 
C    -1.0809225   -2.5850250   -1.0516547 
C    -0.2053410   -2.2622085   -0.0673082 
C    -0.0876725   -0.9713552    0.3462054 
H    -0.7506693    1.0322321    0.0612011 
H    -1.1843933   -3.6123209   -1.3817948 
H     0.4017480   -3.0437160    0.3824712 
H    -2.3053371    0.4387587   -1.7143779 
C     0.9147471   -0.6067565    1.4191604 
C     2.2989121   -0.2909875    0.8088907 
H     1.0041208   -1.4488690    2.1403199 
H     0.5544866    0.2656551    2.0114811 
C     2.2810891    0.9819456   -0.0276182 
O    -2.7038926   -1.9988486   -2.6722207 
H    -3.2443662   -1.2289118   -3.0514371 
O     1.5408970    2.0838813    0.3851432 
N     3.3093951   -0.1964217    1.8744367 
H     2.5820215   -1.1202387    0.1200136 
H     3.0512200    0.5764079    2.5367365 
H     3.3375711   -1.0869838    2.4247559 
N     2.8702468    1.0072022   -1.3300505 
C     4.3385367    0.8753330   -1.4136933 
H     2.2345665    1.0495995   -2.1558588 
C     5.0165125    2.2222336   -1.6257700 
O     6.1710975    2.5111707   -0.9091804 
O     4.5768779    3.1362999   -2.5839456 
H     3.7162397    2.8390154   -3.0152134 
C     4.7036636   -0.1115632   -2.5416545 
H     4.7613663    0.4929630   -0.4519584 
C     4.1654784   -1.4973284   -2.2615532 
H     5.8124725   -0.1756409   -2.6359232 
H     4.3337288    0.2664510   -3.5187387 
C     3.0489668   -2.0547103   -2.7607693 
C     2.1451407   -1.5618964   -3.6472758 
C     1.0857659   -2.3462563   -3.9975538 
C     0.9493352   -3.5990669   -3.4686173 
C     1.8642427   -4.0711824   -2.5754286 
C     2.9003515   -3.2744770   -2.2400898 
H     2.2533689   -0.5727919   -4.0787645 
H     0.3449813   -1.9756416   -4.7027258 
H     0.1025592   -4.2175517   -3.7572997 
H     1.7683273   -5.0614717   -2.1435701 
N     3.9518821   -3.5725985   -1.3331592 
C     4.7265852   -2.3687142   -1.4047940 
H     4.1094881   -4.4331180   -0.7596431 
H     5.6346052   -2.1857767   -0.8333637 
