48
 energy: -9.171538049571 gnorm: 0.000672585866 xtb: 6.6.0 (2ccbbd7)
C           -2.93706555964198        2.30242151412250        2.77700384868273
C           -1.67485408670624        2.47219270371308        2.25822990264362
C           -4.06598255277086        2.58528830120164        2.00693334340857
C           -3.87829648828122        3.04019394772931        0.70202831163626
C           -2.61346911256336        3.20733948799634        0.19054115239533
C           -1.49354007629539        2.93231058933817        0.96164542754291
H           -0.81113420714515        2.24737983891062        2.86019237805630
H           -4.74782919158453        3.25589154447466        0.10725010784810
H           -2.48139800339871        3.55498277590107       -0.81974765387717
H           -3.06675496458269        1.94881585527461        3.78413553575423
C           -0.12157525022341        3.08623498717645        0.38322648626830
C            0.27736671220072        1.92183780904099       -0.52904143775927
H            0.61490257944522        3.17838000239035        1.18665131657508
H           -0.06399402252716        4.02483207383278       -0.17855676677085
C            1.56741718086195        2.20460795332539       -1.22435692211161
O           -5.34790480532357        2.42607677414447        2.49912452836539
H           -5.31335278366513        2.10619567514537        3.42675139532447
O            1.82120395558739        3.50122935237346       -1.70506323829299
N            0.34901328111687        0.65560872556872        0.19201691218535
H           -0.49017904394555        1.80786088635298       -1.31117764823157
H            1.08911036506961        0.70726634448579        0.87941636695180
H           -0.51420321165840        0.48943047401231        0.69267827668197
N            2.47220928540584        1.17854369187861       -1.42499655255779
C            3.58410400819544        1.34518052464840       -2.36221359498840
H            2.10036231995492        0.22719668644247       -1.40055896962535
C            3.11861368186261        2.22517225106528       -3.49979526578328
O            3.13427633066588        1.81486052845016       -4.65620155538179
O            2.66758365359998        3.49839062059835       -3.10027281947810
H            2.92469729058695        3.68898081387285       -1.99201863713297
C            4.17132169710665        0.00411013956752       -2.84722746219489
H            4.36702340771137        1.88854722900628       -1.81366213371453
C            5.64430017952645        0.04735949327427       -3.10527147087304
H            3.64387783569012       -0.30822174799232       -3.75417331120554
H            3.97207190694124       -0.77161741785925       -2.10059711995762
C            6.32322110717427        0.61437119006461       -4.22714235588861
C            5.88341207725964        1.28311665309194       -5.38242026423047
C            6.80677749518146        1.70332123009087       -6.29814486783114
C            8.17852676292633        1.47995200179045       -6.09871431783172
C            8.63478738179159        0.84074046343774       -4.97845830183216
C            7.70212198530040        0.40381040915340       -4.02875948439175
H            4.83567411963879        1.48456580903937       -5.50895052122344
H            6.47875649902090        2.22259111672954       -7.18345755866176
H            8.88190844457840        1.82356711390380       -6.83910778825797
H            9.68348917934619        0.66952092282758       -4.81392678307105
N            7.85334846375790       -0.25014261646953       -2.81935783147668
C            6.61212123990390       -0.45677705208991       -2.27084486039877
H            8.74990690072447       -0.52803806046954       -2.41585429511588
H            6.43146327565719       -0.94805377410620       -1.32855580534676
