48
Energy =
C    -2.6068941   -2.5119406    0.5332572 
C    -1.3471846   -2.3485794    0.0554782 
C    -3.0288692   -1.7936846    1.6082032 
C    -2.1860411   -0.9155909    2.1976867 
C    -0.9254114   -0.7479577    1.7240495 
C    -0.4971058   -1.4670475    0.6505875 
H    -1.0259948   -2.9261417   -0.8074581 
H    -2.5349290   -0.3482409    3.0535340 
H    -0.2634647   -0.0360646    2.2104038 
H    -3.2760969   -3.2173382    0.0526471 
C     0.9020833   -1.2678033    0.1117965 
C     1.0234278    0.0131831   -0.7507440 
H     1.2291809   -2.1508174   -0.4813013 
H     1.6098908   -1.2110315    0.9704384 
C     2.4699787    0.3422669   -1.0919142 
O    -4.3207602   -1.9370285    2.1247606 
H    -4.8888121   -2.6166327    1.6309308 
O     3.5087046   -0.4679009   -0.6349315 
N     0.2187098   -0.1131061   -1.9789365 
H     0.6622143    0.8876248   -0.1603190 
H     0.4707540   -0.9964275   -2.4827718 
H    -0.7981899   -0.1689867   -1.7336034 
N     2.7745203    1.5395501   -1.8254395 
C     4.1512716    2.0703102   -1.7361935 
H     1.9935254    2.0188197   -2.3269737 
C     4.2081158    3.5940862   -1.7782070 
O     5.0725152    4.2489127   -0.9121198 
O     3.4980049    4.3605849   -2.7044262 
H     2.9213834    3.7984372   -3.3096195 
C     5.0455477    1.4125921   -2.8128465 
H     4.5845278    1.8205086   -0.7369896 
C     4.5786379    1.6896164   -4.2260317 
H     5.0808346    0.3146757   -2.6360863 
H     6.0926939    1.7707008   -2.6907938 
C     3.7055842    0.9662421   -4.9463126 
C     3.0564804   -0.1845572   -4.6320945 
C     2.1995477   -0.7173082   -5.5492755 
C     2.0062566   -0.1002953   -6.7541070 
C     2.6692758    1.0538645   -7.0488143 
C     3.5124622    1.5608995   -6.1250250 
H     3.2056655   -0.6766705   -3.6760207 
H     1.6665547   -1.6364876   -5.3193763 
H     1.3200369   -0.5306662   -7.4791650 
H     2.5251406    1.5575261   -7.9986286 
N     4.2838226    2.7494275   -6.2282220 
C     4.9441495    2.7600065   -4.9542878 
H     4.3496609    3.4293805   -7.0206527 
H     5.6029538    3.5547976   -4.6017043 
