48
Energy =
C    -4.1590060    2.5979465   -1.3433221 
C    -2.8508381    2.7093866   -1.6862782 
C    -4.5053602    2.1963829   -0.0911379 
C    -3.5386028    1.9086524    0.8097743 
C    -2.2285856    2.0184983    0.4724346 
C    -1.8769485    2.4244584   -0.7783316 
H    -2.5887679    3.0268520   -2.6928951 
H    -3.8288130    1.5873142    1.8040142 
H    -1.4667589    1.7758333    1.2083150 
H    -4.9266422    2.8288004   -2.0740342 
C    -0.4198248    2.5290028   -1.1691640 
C     0.0565681    1.2938125   -1.9644489 
H     0.2218304    2.6738944   -0.2727522 
H    -0.2768256    3.4434041   -1.7897432 
C     1.4249054    1.5439699   -2.5741103 
O    -5.8437507    2.0688056    0.2944938 
H    -6.5065227    2.3079463   -0.4351039 
O     1.4658882    1.7988140   -3.9413934 
N     0.0502230    0.0875118   -1.1189334 
H    -0.6250573    1.1379953   -2.8371518 
H     0.4795061    0.2855581   -0.1850048 
H    -0.9408247   -0.2011105   -0.9402690 
N     2.5508417    1.8811960   -1.7294100 
C     3.8892813    1.7003324   -2.3507815 
H     2.4987832    1.2658185   -0.8862018 
C     4.1657753    2.7279751   -3.4419869 
O     5.3962887    3.3728562   -3.4775184 
O     3.2530216    2.9570137   -4.4593213 
H     2.3620500    2.3787399   -4.1995284 
C     4.1181636    0.2553138   -2.8690524 
H     4.6580390    1.9211754   -1.5752317 
C     4.1924510   -0.7533252   -1.7430991 
H     5.0844263    0.2155506   -3.4216972 
H     3.3428177   -0.0180018   -3.6168021 
C     3.2892281   -1.6972089   -1.4257907 
C     2.0947244   -1.9954523   -1.9985884 
C     1.3609243   -3.0199092   -1.4754675 
C     1.8281845   -3.7273489   -0.4031026 
C     3.0305722   -3.4121895    0.1554898 
C     3.7358123   -2.3923624   -0.3771256 
H     1.7052092   -1.4244548   -2.8359753 
H     0.3935442   -3.2663893   -1.9078698 
H     1.2366246   -4.5412268    0.0092029 
H     3.4156943   -3.9622026    1.0075895 
N     4.9997459   -1.9092732    0.0535957 
C     5.2232776   -0.8496950   -0.8843185 
H     5.6021165   -2.2389387    0.8428907 
H     6.1124318   -0.2219787   -0.9010532 
