48
Energy =
C     6.9854595   -1.5832690    0.9375276 
C     5.7337248   -1.5608184    1.4607123 
C     7.6023099   -0.4222514    0.5968599 
C     6.9731173    0.7559560    0.7997828 
C     5.7206081    0.7845349    1.3201424 
C     5.0883865   -0.3766621    1.6449012 
H     5.2479631   -2.4974849    1.7205157 
H     7.4851442    1.6735730    0.5316903 
H     5.2227870    1.7409719    1.4635644 
H     7.4858790   -2.5327830    0.7815652 
C     3.6701629   -0.3481267    2.1758623 
C     2.5985326   -0.4672338    1.0619183 
H     3.5032486    0.6018221    2.7328280 
H     3.5299555   -1.1582568    2.9240027 
C     2.7707104    0.5916822   -0.0178660 
O     8.8703486   -0.4126855    0.0102021 
H     9.3147582   -1.3249878   -0.0174260 
O     2.6852392    1.9361004    0.3293221 
N     2.5597121   -1.8339794    0.5115665 
H     1.6042641   -0.2474524    1.5139404 
H     3.4454775   -2.0327129   -0.0103200 
H     2.4805412   -2.5334308    1.2858672 
N     2.8820628    0.2309228   -1.4036981 
C     4.0119693    0.9263318   -2.0646998 
H     1.9678214    0.4852639   -1.8469902 
C     3.5831917    2.2500296   -2.7035690 
O     2.8176232    2.2360653   -3.8631580 
O     3.9300747    3.4802847   -2.1499397 
H     4.1900062    3.3897932   -1.1784312 
C     4.6145185   -0.0449543   -3.1015979 
H     4.8166699    1.1644896   -1.3312157 
C     5.9235322    0.4635010   -3.6728597 
H     3.8750260   -0.2464568   -3.9081145 
H     4.8001495   -1.0251353   -2.6073766 
C     6.1135467    1.1032148   -4.8406887 
C     5.2263067    1.4286747   -5.8164251 
C     5.6849575    2.0892861   -6.9178291 
C     7.0095019    2.4079529   -7.0310359 
C     7.8842196    2.0670314   -6.0431625 
C     7.4061411    1.4153806   -4.9623830 
H     4.1734288    1.1788049   -5.7369575 
H     4.9907106    2.3672153   -7.7077064 
H     7.3657540    2.9373590   -7.9114244 
H     8.9382477    2.3128412   -6.1171312 
N     8.1454579    0.9737827   -3.8334187 
C     7.1111270    0.3666900   -3.0477401 
H     9.1690032    1.0589216   -3.6300892 
H     7.2729049   -0.1103479   -2.0825517 
