48
 energy: -9.067744427969 gnorm: 0.000641355008 xtb: 6.6.0 (2ccbbd7)
C           -3.93518744100040        2.75341624300559       -1.92971591528312
C           -2.92392889567593        2.49837028569438       -2.82724098392279
C           -3.65918339404462        2.92145537896929       -0.57151471986417
C           -2.33209744355531        2.82039100904713       -0.15281060214350
C           -1.33838972981363        2.56615638621027       -1.05946633934842
C           -1.60291978175625        2.40742330218873       -2.40792646104371
H           -3.15186816192653        2.36616794161915       -3.87101633969667
H           -2.10663014467985        2.94331922762030        0.89118382086572
H           -0.15817940494384        2.45567328771157       -0.72684040285224
H           -4.95347739867287        2.82486167566725       -2.26752791223946
C           -0.50898643757251        2.10935417037772       -3.39565825291688
C            0.85603288097436        2.70101635580087       -3.02041835697035
H           -0.80419626295697        2.48782871685597       -4.37926124837664
H           -0.40641273470618        1.02646143142867       -3.51009238231957
C            1.44810146065355        1.98805118023143       -1.83838788262260
O           -4.65268248585931        3.17864292657951        0.35353787018404
H           -5.52560930289015        3.21810594805558       -0.09377339591539
O            0.95676619489242        2.29593783679093       -0.59185181932305
N            1.77853686077620        2.76420975954808       -4.15034304054578
H            0.69697050323168        3.74459757126976       -2.70221878501493
H            2.08260704171439        1.85350337774313       -4.49864229310685
H            1.37172203888664        3.26742547538264       -4.92940320252671
N            2.45354026184409        1.00957252302341       -1.99363663137639
C            3.88141403026095        1.19168620508807       -1.65968487289526
H            2.18585984412227        0.07212927763403       -1.69499740484776
C            4.35743647623864        2.63790131209981       -1.72298313180854
O            5.41692329465011        2.87334045559930       -2.26364205759105
O            3.58523143271459        3.56703229297365       -1.10966356022835
H            2.74422977955746        3.15793531823833       -0.79579907567405
C            4.71448717516038        0.29230300277623       -2.58997007537824
H            4.02746085886392        0.87722399516416       -0.61442179464590
C            4.21278907622135        0.34803926297100       -3.99318922674723
H            4.67691376604068       -0.74670731452221       -2.24610591193760
H            5.76556310282616        0.59583223950372       -2.55512696048451
C            4.58864088698900        1.26950746205551       -5.01765907232411
C            5.54683515385315        2.29563449637414       -5.08245687677697
C            5.65759495196848        3.02178280801923       -6.23557331980392
C            4.82764856001524        2.76402396056476       -7.33876025067971
C            3.86704519147955        1.79116588847462       -7.28948863535099
C            3.73697754609705        1.03778343081058       -6.11597750517483
H            6.13064518052187        2.53305078717724       -4.21038277918948
H            6.38281061573905        3.81652629430843       -6.29458594134225
H            4.94150121393169        3.35403776864028       -8.23308857962604
H            3.21437100381917        1.59954066323618       -8.12220928389118
N            2.83613137747852        0.05423307466224       -5.74233332251846
C            3.15005050763551       -0.37502128754579       -4.47785385776236
H            2.13122265093982       -0.35141565900819       -6.36150597364487
H            2.60873723289300       -1.13148397085143       -3.93287090445096
