48
Energy =
C    -2.5268873    0.0414130    0.3154435 
C    -1.3903670    0.7327925    0.0499941 
C    -3.0114912   -0.0142863    1.5848169 
C    -2.3534370    0.6230569    2.5802471 
C    -1.2153018    1.3154908    2.3202176 
C    -0.7286595    1.3763767    1.0508845 
H    -1.0107150    0.7663445   -0.9678196 
H    -2.7492805    0.5695903    3.5885297 
H    -0.6979149    1.8154068    3.1349153 
H    -3.0455558   -0.4678276   -0.4891892 
C     0.5520236    2.1223216    0.7513784 
C     1.7496710    1.1599066    0.5853459 
H     0.7778392    2.8741640    1.5407275 
H     0.4076767    2.7083472   -0.1845807 
C     2.9023528    1.8434224   -0.1270614 
O    -4.1795269   -0.7194372    1.8930493 
H    -4.6187010   -1.1608214    1.0929274 
O     3.4226560    3.0415215    0.3516646 
N     2.1840808    0.6285761    1.8861102 
H     1.4450896    0.3066707   -0.0645427 
H     2.4606407    1.4199573    2.5165688 
H     1.3925587    0.1187230    2.3432497 
N     3.4043469    1.2967718   -1.3521479 
C     4.3550200    0.1895289   -1.0848419 
H     3.8639996    2.0739304   -1.8822016 
C     5.7951057    0.6495771   -0.8963735 
O     6.6791122   -0.1671615   -0.2047151 
O     6.2714080    1.8203594   -1.4709287 
H     6.0439437    2.5923023   -0.8570502 
C     4.2440758   -0.8265938   -2.2367617 
H     4.1109254   -0.3437544   -0.1311134 
C     2.9082445   -1.5380381   -2.1932994 
H     5.0611623   -1.5809284   -2.1597714 
H     4.3823295   -0.3100630   -3.2122649 
C     1.7496791   -1.1247956   -2.7346493 
C     1.4810850   -0.0311446   -3.4933223 
C     0.1965816    0.1749140   -3.9034284 
C    -0.7903236   -0.7039696   -3.5518428 
C    -0.4987470   -1.7930105   -2.7854882 
C     0.7801865   -1.9767638   -2.3955271 
H     2.2616855    0.6722948   -3.7677673 
H    -0.0429779    1.0439404   -4.5121249 
H    -1.8118810   -0.5323349   -3.8826671 
H    -1.2703946   -2.4968414   -2.4916970 
N     1.2856315   -3.0245204   -1.5809885 
C     2.6690990   -2.6601957   -1.4913862 
H     0.7835825   -3.8397254   -1.1588381 
H     3.4098471   -3.2000408   -0.9042207 
