48
Energy =
C     4.4808782    4.8250645    3.7780845 
C     4.1940828    4.2656087    2.5753005 
C     3.7200169    4.5324354    4.8665620 
C     2.6766455    3.6805639    4.7435245 
C     2.3851450    3.1181610    3.5432684 
C     3.1412134    3.4110584    2.4502477 
H     4.8129308    4.5046459    1.7121930 
H     2.0790170    3.4542103    5.6198845 
H     1.5449260    2.4329193    3.4651658 
H     5.3207484    5.5057826    3.8672880 
C     2.8314737    2.7710301    1.1160708 
C     3.3279719    1.3057628    1.0393593 
H     3.2811415    3.3649677    0.2875203 
H     1.7316330    2.8047389    0.9457083 
C     2.9008912    0.6445927   -0.2617154 
O     3.9886214    5.0901914    6.1205504 
H     4.7832163    5.7205865    6.1308587 
O     2.0238231   -0.4325562   -0.2180725 
N     4.7891248    1.2330234    1.2133078 
H     2.8382545    0.7115847    1.8470622 
H     5.2595417    1.9861780    0.6569663 
H     5.0285482    1.4098611    2.2170445 
N     3.1067587    1.3003074   -1.5183151 
C     4.4520171    1.2406900   -2.1109640 
H     2.2917443    1.7448122   -1.9971091 
C     5.1077354    2.6158422   -2.0669384 
O     4.3755472    3.7381977   -2.4378090 
O     6.4414404    2.7832406   -1.6921916 
H     6.9108645    1.9008173   -1.5465734 
C     4.3247916    0.7209787   -3.5532600 
H     5.0909273    0.5298694   -1.5359728 
C     5.6758853    0.4086589   -4.1583692 
H     3.7746199    1.4571883   -4.1796467 
H     3.7099720   -0.2069975   -3.5462584 
C     6.4621790    1.2391940   -4.8630098 
C     6.2583453    2.5289711   -5.2365573 
C     7.2346590    3.1593537   -5.9502576 
C     8.3868918    2.4996726   -6.2775517 
C     8.5709410    1.2056163   -5.8902673 
C     7.5905519    0.6035880   -5.1846076 
H     5.3509290    3.0622582   -4.9681842 
H     7.0978603    4.1951452   -6.2520860 
H     9.1619504    3.0114460   -6.8425275 
H     9.4816062    0.6699306   -6.1355385 
N     7.5899788   -0.7231614   -4.6766117 
C     6.3175100   -0.7648176   -4.0193230 
H     8.3196707   -1.4674737   -4.7603714 
H     5.9378393   -1.6241946   -3.4716065 
