48
Energy =
C     3.4739356   -5.3866283   -6.0191331 
C     3.3224180   -4.0572683   -6.2617644 
C     3.3563114   -5.8705962   -4.7507340 
C     3.0900168   -5.0199145   -3.7330721 
C     2.9418313   -3.6963657   -3.9818358 
C     3.0409595   -3.2049755   -5.2391226 
H     3.4315126   -3.6844514   -7.2766824 
H     2.9977486   -5.4077219   -2.7246876 
H     2.6970170   -2.8748499   -3.1750473 
H     3.6938063   -6.0603086   -6.8402150 
C     2.9187583   -1.7043575   -5.4671676 
C     1.8048913   -1.0190049   -4.6119492 
H     2.7081700   -1.5202657   -6.5439418 
H     3.9029476   -1.2352282   -5.2483475 
C     2.1324232   -0.9530452   -3.1006100 
O     3.5056860   -7.2321009   -4.4684100 
H     3.7044331   -7.8019429   -5.2831908 
O     2.4695350   -2.1180414   -2.4086479 
N     1.5145819    0.3121356   -5.1674144 
H     0.8772290   -1.6362698   -4.6754763 
H     2.3899346    0.8902305   -5.2003366 
H     1.1618810    0.2246674   -6.1492321 
N     1.9002335    0.2308596   -2.3192897 
C     3.1040304    1.0508399   -1.9841430 
H     1.1190071    0.7808888   -2.7452733 
C     2.9028780    2.5270132   -2.3364351 
O     2.4108552    2.8742934   -3.5896666 
O     3.2459068    3.5507481   -1.4516178 
H     3.6747731    3.2024636   -0.6067515 
C     4.4390929    0.5166882   -2.5795779 
H     3.2036068    0.9990466   -0.8784253 
C     5.6364352    1.2731366   -2.0450569 
H     4.4163051    0.5722487   -3.6877953 
H     4.5729542   -0.5541061   -2.3021403 
C     6.2419996    2.3345567   -2.6026931 
C     5.9758026    2.9802126   -3.7674770 
C     6.7451429    4.0547839   -4.1035845 
C     7.7577661    4.4642712   -3.2808869 
C     8.0056646    3.8023424   -2.1151635 
C     7.2307374    2.7418256   -1.8046444 
H     5.1659819    2.6661860   -4.4186570 
H     6.5456598    4.5925492   -5.0271663 
H     8.3628602    5.3249042   -3.5542915 
H     8.8004172    4.1179439   -1.4480965 
N     7.3122945    1.9309324   -0.6407847 
C     6.2410951    1.0082900   -0.8734332 
H     7.9743898    1.9926464    0.1661880 
H     5.9545121    0.2145669   -0.1871461 
