48
 energy: -9.278364184748 gnorm: 0.000702565936 xtb: 6.6.0 (2ccbbd7)
C           -2.11898907888616        1.09953009970526        0.70683560044500
C           -0.84708447374899        1.56743168397342        0.47837461220161
C           -2.62566243353480        1.02788773464144        2.00493391941822
C           -1.80545580484917        1.43420354126163        3.05729557044006
C           -0.53363510403423        1.89829892679371        2.82032261708234
C           -0.03847556422029        1.98071509780902        1.52739954284305
H           -0.45074515420302        1.58938476662337       -0.52265283372601
H           -2.19327330912984        1.36950326967697        4.05823945508430
H            0.09303122327395        2.19889819016346        3.64234695516985
H           -2.73315931975214        0.77552631872157       -0.11419896849339
C            1.35509609039910        2.46364019235848        1.26880934711919
C            2.40278675820602        1.34323299547099        1.22713334152815
H            1.63337107222344        3.20371388179454        2.02536321328502
H            1.38254012434559        2.99613938762789        0.31181169070710
C            2.05956800690307        0.35387629981812        0.12453985262756
O           -3.90177359603561        0.56994101323650        2.27080656857280
H           -4.34059413986417        0.29530573168134        1.43718626021622
O            1.31749553363745       -0.56399852393591        0.42347522988629
N            3.74084401838161        1.90069424252083        1.10094617684432
H            2.36281537265941        0.77558310941681        2.17012508516152
H            3.67238715871068        2.51010667210108        0.29019560585256
H            3.95767147353204        2.49197175689758        1.89175239003062
N            2.47835223183943        0.49968375890557       -1.19317284505960
C            3.77488869494594        1.04223090079241       -1.64556774713467
H            2.09744851912101       -0.16082140347743       -1.86775818457952
C            3.59640451556845        2.48391668841174       -2.11894109762798
O            3.06468650679719        3.24888660970485       -1.34270815966648
O            4.03853279164719        2.86173287809999       -3.34797344564654
H            4.57372715441235        2.16109049017246       -3.77525667306287
C            4.38160820738951        0.08549160559802       -2.68017090501040
H            4.44990328697220        1.05009305260700       -0.78078543997706
C            5.79248595402218        0.39184755140303       -3.04960701392891
H            3.75231186703112        0.08328128740599       -3.57420929046749
H            4.33808890952501       -0.93650491303759       -2.28891764592125
C            6.27814989925994        0.67906649245120       -4.36100979371840
C            5.65482227411555        0.74676316967840       -5.61912990324911
C            6.40960345358236        1.09652350586708       -6.70438049588721
C            7.77857824417754        1.38286912426923       -6.57755871103031
C            8.40643012331663        1.31860811835157       -5.36394899557800
C            7.65205770231336        0.96239933093963       -4.23920079923093
H            4.60825552774773        0.51812353354860       -5.71961524281121
H            5.94723720563945        1.15507058882564       -7.67582255464873
H            8.34251881793877        1.65925811960699       -7.45302014565503
H            9.45330930965358        1.53948313792575       -5.25715060422489
N            7.98633889228864        0.83194093048938       -2.90276314568624
C            6.86122125512019        0.49037017681026       -2.19425304511302
H            8.91792994674764        0.99745003277255       -2.51740503426649
H            6.82669022918591        0.34137817346807       -1.12716791440584
