48
Energy =
C    -0.9233828    4.0695361   -5.9956686 
C    -0.3641618    3.6526060   -4.8317259 
C    -2.1411912    3.5985913   -6.3761544 
C    -2.7914810    2.7128635   -5.5872681 
C    -2.2368741    2.2919853   -4.4222967 
C    -1.0196472    2.7624570   -4.0366291 
H     0.6122635    4.0365095   -4.5400147 
H    -3.7619717    2.3451131   -5.9015097 
H    -2.7736151    1.5776880   -3.8034415 
H    -0.3932159    4.7796132   -6.6210658 
C    -0.3843438    2.2864421   -2.7504277 
C     0.7189150    1.2303472   -3.0044732 
H    -1.1455005    1.8781902   -2.0487561 
H     0.0557040    3.1677635   -2.2268341 
C     1.6053477    1.0340473   -1.7884841 
O    -2.7444751    4.0054953   -7.5709259 
H    -2.1978904    4.6766056   -8.0995225 
O     1.2607935    1.5715026   -0.5536754 
N     0.1294578   -0.0523311   -3.4198696 
H     1.3985723    1.6023756   -3.8070069 
H    -0.5421354   -0.3806761   -2.6855661 
H    -0.4156690    0.0799122   -4.3037721 
N     2.9219563    0.4968506   -1.9454175 
C     4.0397221    1.3941584   -2.3181398 
H     3.0396953   -0.5344218   -1.8263667 
C     3.6356109    2.8656789   -2.4856585 
O     3.4478609    3.3969521   -3.7577483 
O     3.4195865    3.6917643   -1.3866313 
H     3.2970236    3.1468999   -0.5421646 
C     4.7191712    0.8463978   -3.5951591 
H     4.7802335    1.3902619   -1.4884427 
C     5.4169999   -0.4715831   -3.3458265 
H     5.4612424    1.5773912   -3.9888415 
H     3.9527617    0.7216090   -4.3933431 
C     6.6077439   -0.6505671   -2.7534747 
C     7.4827009    0.2651219   -2.2636289 
C     8.6395029   -0.1835606   -1.6967417 
C     8.9007114   -1.5244520   -1.6285169 
C     8.0066396   -2.4250783   -2.1272530 
C     6.8701795   -1.9564287   -2.6839805 
H     7.2776042    1.3300867   -2.3179634 
H     9.3580195    0.5283016   -1.2969312 
H     9.8246185   -1.8743831   -1.1745474 
H     8.1974542   -3.4918937   -2.0800605 
N     5.8137367   -2.7173944   -3.2520118 
C     4.9116184   -1.6787705   -3.6543622 
H     5.7197959   -3.7543939   -3.3492912 
H     3.9463341   -1.8510021   -4.1260438 
