48
 energy: -9.285944924264 gnorm: 0.000700658776 xtb: 6.6.0 (2ccbbd7)
C           -1.91275092292822        1.52892245942314        0.28187547515435
C           -0.54944512714410        1.68777104809863        0.21444967021114
C           -2.58650288359912        1.69702548370119        1.49216786208047
C           -1.83987127143173        2.02259796332656        2.62429193151379
C           -0.47598205864995        2.17473058448398        2.54859821302093
C            0.18876165464032        2.01662272496123        1.34156415611059
H           -0.03211834175405        1.53552777106020       -0.71692713944082
H           -2.35878766923418        2.14582225964119        3.55805907172805
H            0.08996431518014        2.41531073029116        3.43208750819063
H           -2.47222948739702        1.26565427691454       -0.59775512802579
C            1.67765539831172        2.15103767960902        1.26118694672951
C            2.41988517915960        0.81354790199362        1.37892377958853
H            2.02629550968912        2.83360230026664        2.04250459964831
H            1.94644689086697        2.63175076339727        0.31591122470391
C            2.03568722192033       -0.14438487709715        0.25908478563053
O           -3.95635698796658        1.54970529293822        1.59614712913238
H           -4.33395927787897        1.29130158323384        0.72807037926959
O            1.12612876772704       -0.91831374168404        0.49313926324793
N            3.86129202427075        1.00876591865125        1.51918013980225
H            2.07807301836517        0.31454624427704        2.30122949952993
H            4.14776410136388        1.67155676394968        0.80194296620677
H            4.07998021734887        1.44618230582051        2.40448662772043
N            2.63162752810021       -0.14821349593010       -0.98693931470526
C            3.84052515133511        0.58600241097198       -1.36509276474494
H            2.35421271590522       -0.87124884259408       -1.64770872557474
C            3.55257391047518        2.07177971572268       -1.36174050753646
O            4.32884566982179        2.80782654117589       -0.79004313608433
O            2.41819243678341        2.44934227184566       -1.99716384720380
H            1.94997723620393        1.65480905453486       -2.34643616924662
C            4.39187909904828        0.14193076229944       -2.71916620990420
H            4.60565624600679        0.37139499971864       -0.60722799656475
C            5.73313292513629        0.72743223518607       -3.00340444122478
H            3.69202053789371        0.42874948924174       -3.50916433484950
H            4.45573243173770       -0.94989950543092       -2.75295570662863
C            6.99424452510216        0.08256477255468       -2.83384082207345
C            7.35923024650419       -1.21361985821593       -2.43136582249435
C            8.68844946041640       -1.52129717892025       -2.34009745885030
C            9.67731310480541       -0.56919699535057       -2.63702502002923
C            9.34535228428067        0.69858235522883       -3.02932288992192
C            7.98936878731401        1.03336490338566       -3.13256774139808
H            6.59945030949838       -1.93727198819535       -2.19564177230018
H            8.98473059986401       -2.50998408953568       -2.03114131033875
H           10.71554287469662       -0.84358198120952       -2.54974193184287
H           10.09547768883012        1.43587030752936       -3.25242774295903
N            7.34948738276420        2.21292438301921       -3.47042011620516
C            5.99347145504732        2.02311402429162       -3.37515980048441
H            7.82222519093079        3.09541651251863       -3.67416847505808
H            5.24928881831570        2.78888317396720       -3.52800444247328
