48
Energy =
C    -0.2007330    3.2465716   -6.3665047 
C    -0.0996010    3.5704966   -5.0515387 
C    -1.0575999    2.2700179   -6.7653783 
C    -1.8077002    1.6222632   -5.8455057 
C    -1.7094641    1.9404171   -4.5298938 
C    -0.8557273    2.9200264   -4.1242365 
H     0.5979329    4.3476885   -4.7436143 
H    -2.4864995    0.8439833   -6.1766343 
H    -2.3179978    1.4052551   -3.8055300 
H     0.4076448    3.7664205   -7.0985510 
C    -0.7367192    3.2586061   -2.6525847 
C     0.1674392    2.2503302   -1.8992968 
H    -1.7561429    3.2558281   -2.2076893 
H    -0.3476220    4.2925680   -2.5109587 
C     1.6499850    2.3833499   -2.2454796 
O    -1.1847532    1.9123514   -8.1111159 
H    -0.5898310    2.4418996   -8.7386995 
O     2.0924736    3.4825140   -2.9707104 
N    -0.0365390    2.3904171   -0.4492452 
H    -0.1260522    1.2176311   -2.1975228 
H     0.1847521    3.3723511   -0.1541399 
H    -1.0387475    2.2052088   -0.2092653 
N     2.5736876    1.3761958   -1.7805363 
C     4.0536861    1.4890427   -1.8451337 
H     2.1545600    0.4708154   -1.4691924 
C     4.6350221    2.8438549   -2.2849345 
O     5.1501051    3.7000106   -1.3165540 
O     4.7493886    3.2139736   -3.6277630 
H     4.1417883    2.6517675   -4.2023057 
C     4.6075312    0.2925961   -2.6574398 
H     4.4191166    1.3746179   -0.7999476 
C     6.1068213    0.1419137   -2.4935712 
H     4.3246081    0.3819132   -3.7265595 
H     4.1302510   -0.6467551   -2.3000975 
C     7.0678387    0.4888584   -3.3676565 
C     6.9697090    1.0310738   -4.6091742 
C     8.1182095    1.2935736   -5.2963411 
C     9.3353001    1.0112296   -4.7415544 
C     9.4112906    0.4648285   -3.4953693 
C     8.2610792    0.2153432   -2.8348243 
H     6.0087018    1.2611391   -5.0547084 
H     8.0644002    1.7349240   -6.2885700 
H    10.2459075    1.2268045   -5.2945965 
H    10.3686872    0.2371180   -3.0395075 
N     8.1240003   -0.3441581   -1.5365855 
C     6.6986797   -0.3547247   -1.3922797 
H     8.8647143   -0.6653428   -0.8721467 
H     6.1743932   -0.7075146   -0.5072588 
