48
Energy =
C     1.6755500   -1.7487723    4.1970022 
C     1.2223363   -1.9699545    2.9371931 
C     1.3893848   -0.5809354    4.8309288 
C     0.6459744    0.3557473    4.2009376 
C     0.1889632    0.1391302    2.9421026 
C     0.4840957   -1.0217802    2.2929653 
H     1.4543968   -2.9126051    2.4496511 
H     0.4178324    1.2810915    4.7186241 
H    -0.4213473    0.9005800    2.4660135 
H     2.2653010   -2.5096580    4.6969606 
C    -0.0200306   -1.2740770    0.8812068 
C     0.9766595   -0.8931520   -0.2518951 
H    -0.9800829   -0.7327656    0.7220163 
H    -0.2743019   -2.3520686    0.7795982 
C     1.0731268    0.6034088   -0.5321074 
O     1.8424521   -0.3209270    6.1281731 
H     2.3886000   -1.0732528    6.5333697 
O     0.4211627    1.5321929    0.2688525 
N     2.3049406   -1.4858773   -0.0222252 
H     0.5671551   -1.3223351   -1.1946900 
H     2.7505879   -1.0502498    0.8204222 
H     2.2098702   -2.5129658    0.1543021 
N     1.7376202    1.0746442   -1.7095962 
C     2.9707350    1.8581087   -1.5182276 
H     1.3959240    0.7832477   -2.6530763 
C     2.8872832    3.2121790   -2.2154317 
O     2.1305019    3.3558315   -3.3720452 
O     3.6682534    4.2905549   -1.7974063 
H     4.1704645    4.0944651   -0.9451398 
C     4.1878113    1.0352573   -1.9988000 
H     3.1105512    2.0885705   -0.4364321 
C     4.1489856    0.7237502   -3.4851170 
H     4.2461866    0.0958681   -1.4090136 
H     5.1239320    1.5937340   -1.7759364 
C     3.7504126   -0.4206247   -4.0676359 
C     3.3053610   -1.5765572   -3.5106986 
C     2.9475839   -2.6010902   -4.3363773 
C     3.0375095   -2.4581749   -5.6929150 
C     3.4864378   -1.2894503   -6.2315273 
C     3.8363060   -0.2913268   -5.3933876 
H     3.2309710   -1.6955213   -2.4370096 
H     2.5886517   -3.5358160   -3.9129084 
H     2.7488741   -3.2786151   -6.3450101 
H     3.5607067   -1.1573863   -7.3055845 
N     4.3135870    0.9969947   -5.7499685 
C     4.4861076    1.5930576   -4.4563861 
H     4.5005778    1.3965181   -6.6984764 
H     4.7914639    2.6263195   -4.2885010 
