48
Energy =
C     1.5491627   -6.0015712   -3.7768785 
C     1.1356401   -4.8100213   -3.2758692 
C     2.1502991   -6.9125269   -2.9655539 
C     2.3331273   -6.6239158   -1.6569408 
C     1.9207210   -5.4343508   -1.1505019 
C     1.3162354   -4.5200012   -1.9579202 
H     0.6585270   -4.0898902   -3.9354688 
H     2.8156094   -7.3573230   -1.0204186 
H     2.0827208   -5.2183888   -0.0978710 
H     1.3987898   -6.2234006   -4.8277496 
C     0.8686258   -3.1835017   -1.4048638 
C     1.8553823   -2.0349203   -1.7433333 
H     0.7266588   -3.2388358   -0.3032690 
H    -0.1378297   -2.9577813   -1.8231839 
C     1.2577517   -0.6584332   -1.3730390 
O     2.5900845   -8.1486993   -3.4506777 
H     2.4099411   -8.2905669   -4.4383213 
O    -0.1272201   -0.5355596   -1.4237302 
N     3.1529863   -2.2978505   -1.1008497 
H     1.9795904   -2.0282348   -2.8472334 
H     3.0146260   -2.4856012   -0.0786929 
H     3.5909931   -3.1536297   -1.5173116 
N     1.9771298    0.5874232   -1.1830301 
C     3.4477579    0.6430416   -1.3764910 
H     1.7518571    0.8606100   -0.1977609 
C     4.0281551    1.9693998   -0.8822563 
O     5.3528740    2.0064359   -0.4672459 
O     3.3236166    3.1723515   -0.9489686 
H     2.3939682    3.0442595   -1.3219093 
C     3.8372529    0.4338957   -2.8594104 
H     3.9537984   -0.1113534   -0.7409436 
C     3.1310712    1.3979738   -3.7918811 
H     3.6310675   -0.6074896   -3.1657973 
H     4.9396244    0.5303275   -2.9689129 
C     3.5830297    2.5912616   -4.2148473 
C     4.7516748    3.2298853   -3.9442826 
C     4.9618168    4.4593137   -4.4965167 
C     4.0129179    5.0271877   -5.3005032 
C     2.8457125    4.3708341   -5.5543117 
C     2.6611266    3.1555298   -4.9976366 
H     5.5022492    2.7945089   -3.2897187 
H     5.8849789    4.9954167   -4.2867091 
H     4.1859257    6.0105167   -5.7315164 
H     2.0784341    4.8122550   -6.1817883 
N     1.5167781    2.3236484   -5.1173689 
C     1.8989618    1.2101152   -4.2997301 
H     0.6365939    2.4763770   -5.6620004 
H     1.2603013    0.3531407   -4.0948881 
