48
Energy =
C    -2.8699738   -1.1592916   -3.6036082 
C    -2.2633085   -1.7986183   -2.5715045 
C    -2.2446865   -1.0570183   -4.8066367 
C    -1.0128220   -1.5895713   -4.9671538 
C    -0.4001695   -2.2267954   -3.9383795 
C    -1.0231239   -2.3381342   -2.7316147 
H    -2.7782980   -1.8768902   -1.6175937 
H    -0.5238774   -1.4982851   -5.9308381 
H     0.5892082   -2.6504707   -4.0896648 
H    -3.8585498   -0.7340733   -3.4659290 
C    -0.3458494   -3.0581434   -1.5820040 
C     0.5279374   -2.1341235   -0.6975799 
H     0.2924091   -3.8777902   -1.9841044 
H    -1.1080428   -3.5636567   -0.9495347 
C     1.6481334   -1.4586352   -1.4862826 
O    -2.8458130   -0.4156026   -5.8931704 
H    -3.7532259   -0.0132556   -5.6849498 
O     2.5000026   -2.2815077   -2.2129770 
N    -0.3058656   -1.1770651    0.0518486 
H     1.0523236   -2.7809950    0.0414326 
H    -0.7717346   -0.5107155   -0.6086412 
H    -1.0558712   -1.6876922    0.5736533 
N     1.7640976   -0.0118705   -1.4934958 
C     2.7891334    0.7422230   -2.2791193 
H     1.7704589    0.3119161   -0.4991800 
C     2.0926296    1.7784113   -3.1584757 
O     2.7046263    3.0089301   -3.3618364 
O     0.9211726    1.4944093   -3.8603680 
H     0.5394582    0.6001750   -3.5937316 
C     3.7707356   -0.0792027   -3.1534174 
H     3.4003303    1.3691823   -1.5950527 
C     4.8949058   -0.8919160   -2.5033300 
H     4.2911255    0.6375449   -3.8299566 
H     3.1861150   -0.7336515   -3.8362029 
C     5.2842135   -1.0639726   -1.2114850 
C     4.7921808   -0.5742003   -0.0378244 
C     5.3976735   -0.9258552    1.1319026 
C     6.4796211   -1.7548377    1.1284023 
C     6.9638079   -2.2392673   -0.0452822 
C     6.3497690   -1.8794594   -1.1916073 
H     3.9419554    0.0757457    0.0172594 
H     5.0140167   -0.5437358    2.0751255 
H     6.9556297   -2.0303039    2.0662010 
H     7.8231934   -2.9009421   -0.0656878 
N     6.7175010   -2.2864739   -2.4969959 
C     5.7318900   -1.6109347   -3.2781024 
H     7.5015965   -2.9080470   -2.8018832 
H     5.6711120   -1.6776702   -4.3623482 
