48
Energy =
C    -1.5835085    0.5403019   -5.6651828 
C    -1.6137884    1.1651296   -4.4608281 
C    -0.8795476    1.0779667   -6.6970794 
C    -0.2103746    2.2394310   -6.5158025 
C    -0.2387503    2.8689302   -5.3143740 
C    -0.9432856    2.3360391   -4.2778283 
H    -2.1774970    0.7213252   -3.6440759 
H     0.3511907    2.6593284   -7.3434831 
H     0.3110181    3.7986815   -5.1897402 
H    -2.1221073   -0.3914417   -5.8003924 
C    -0.9627145    3.0172043   -2.9250758 
C     0.0221112    2.3518637   -1.9327894 
H    -1.9964972    2.9684323   -2.5179977 
H    -0.7236289    4.1007202   -3.0244449 
C     1.4854180    2.5470044   -2.3208270 
O    -0.8270852    0.4577153   -7.9497448 
H    -1.3556841   -0.4058163   -8.0046927 
O     1.8391705    3.6293978   -3.1173325 
N    -0.2219971    2.8580395   -0.5740820 
H    -0.1616373    1.2529923   -1.9373035 
H    -0.0843583    3.8977590   -0.5528900 
H    -1.2104960    2.6623354   -0.2900278 
N     2.4856383    1.6577088   -1.7771236 
C     3.9511256    1.8937065   -1.8389890 
H     2.1436269    0.7532057   -1.3804371 
C     4.4183774    3.2617854   -2.3641916 
O     4.8392401    4.2237253   -1.4509456 
O     4.5146153    3.5526613   -3.7274827 
H     3.9924243    2.8839804   -4.2714260 
C     4.6129736    0.6983990   -2.5664782 
H     4.3138524    1.8807200   -0.7866993 
C     6.1215735    0.7090577   -2.4203272 
H     4.3095480    0.6763191   -3.6333457 
H     4.2341320   -0.2519662   -2.1290677 
C     7.0335866    1.0537440   -3.3462339 
C     6.8682629    1.4509386   -4.6346753 
C     7.9772232    1.7505540   -5.3698184 
C     9.2225664    1.6474102   -4.8152962 
C     9.3663521    1.2437795   -3.5215295 
C     8.2540188    0.9540031   -2.8141746 
H     5.8844230    1.5366561   -5.0817073 
H     7.8683653    2.0775607   -6.4010835 
H    10.1011097    1.8912428   -5.4072036 
H    10.3466867    1.1586064   -3.0654132 
N     8.1878248    0.5217576   -1.4628592 
C     6.7721543    0.3882626   -1.2873849 
H     8.9639778    0.3444639   -0.7849735 
H     6.2953009    0.0801918   -0.3598681 
