48
Energy =
C    -1.9768096   -2.9562220   -4.3035807 
C    -0.7297637   -3.0189071   -3.7716131 
C    -2.4471860   -1.7836770   -4.8042675 
C    -1.6667329   -0.6815742   -4.7667059 
C    -0.4183815   -0.7403707   -4.2379762 
C     0.0621198   -1.9099416   -3.7373332 
H    -0.3727842   -3.9647957   -3.3732997 
H    -2.0578391    0.2496204   -5.1620283 
H     0.1837772    0.1591640   -4.2125925 
H    -2.5966311   -3.8460568   -4.3267514 
C     1.4558124   -1.9905064   -3.1381365 
C     1.5792138   -1.4465436   -1.6829146 
H     2.3044720   -1.4531440   -3.8604579 
H     1.7825591   -3.0543926   -3.1332406 
C     1.7370954    0.0693310   -1.6111719 
O    -3.7253775   -1.6834409   -5.3615277 
H    -4.2520711   -2.5499257   -5.3442221 
O     0.6710017    0.8896632   -1.9559791 
N     0.4717392   -1.9248091   -0.8381930 
H     2.5333617   -1.8382414   -1.2533371 
H    -0.4240184   -1.4548078   -1.1231890 
H     0.3359542   -2.9552315   -0.9650174 
N     2.7744232    0.6319872   -0.8021969 
C     4.1265541    0.9106957   -1.3447092 
H     2.5750527    0.7125039    0.2205868 
C     4.3676264    2.4008459   -1.5374694 
O     4.8178964    3.1626445   -0.4657632 
O     4.1768292    3.0180806   -2.7715620 
H     3.6428430    2.3169814   -3.5001053 
C     4.5286658    0.0628753   -2.5828717 
H     4.8549311    0.6282172   -0.5514709 
C     3.6873961    0.2504081   -3.8320801 
H     4.5389915   -1.0082128   -2.2906464 
H     5.5777398    0.3136623   -2.8615028 
C     3.1373038   -0.9179437   -4.5839519 
C     4.1695581   -1.9364747   -5.0339087 
C     4.2135469   -2.3376830   -6.3199992 
C     3.4582138   -1.7429839   -7.2729892 
C     2.6704014   -0.6761180   -7.0062306 
C     2.5099252   -0.2311537   -5.7471290 
H     4.8074712   -2.4204716   -4.2994986 
H     4.8971068   -3.1344312   -6.6044192 
H     3.5621575   -2.0729106   -8.3036255 
H     2.2327748   -0.1184698   -7.8279214 
N     2.2461089    1.1403083   -5.4812932 
C     3.0481564    1.5433904   -4.3148174 
H     1.5983332    1.7373115   -6.0495298 
H     2.8672208    2.6377316   -4.4100102 
