48
Energy =
C     0.6165140    6.3130294    3.3887771 
C     0.4142881    5.4826158    2.3347328 
C     1.1777495    7.5368454    3.1970399 
C     1.5321049    7.9213761    1.9497212 
C     1.3322313    7.0950081    0.8918686 
C     0.7690273    5.8698273    1.0788531 
H    -0.0351347    4.5073023    2.5033363 
H     1.9784093    8.8998622    1.8098107 
H     1.6270223    7.4227386   -0.1016919 
H     0.3286862    5.9954788    4.3851461 
C     0.5606038    4.9352367   -0.0917068 
C     1.6284166    3.8125170   -0.1527595 
H     0.5499415    5.4961503   -1.0542735 
H    -0.4530564    4.4811807   -0.0052137 
C     1.3092668    2.7775155   -1.2272281 
O     1.4028094    8.4153374    4.2620232 
H     1.1013605    8.0568883    5.1614423 
O     0.1406935    2.8770299   -1.9753003 
N     2.9678628    4.3848721   -0.3644625 
H     1.6208298    3.2529307    0.8098570 
H     2.9703470    4.9805998   -1.2286840 
H     3.2299762    4.9968124    0.4428063 
N     2.0186798    1.5330486   -1.2694506 
C     3.4383891    1.5178975   -1.6882160 
H     1.4822120    0.6658941   -1.0417119 
C     3.8399735    2.5956286   -2.7097795 
O     2.9284708    3.0688197   -3.6449929 
O     5.1393554    3.1036700   -2.7454656 
H     5.7338619    2.6809331   -2.0489269 
C     3.8204628    0.1019256   -2.1760994 
H     4.0433613    1.7230929   -0.7778410 
C     3.1213093   -0.3845626   -3.4408537 
H     3.6127938   -0.6266543   -1.3621121 
H     4.9190230    0.0818003   -2.3533024 
C     3.4666757   -1.4860993   -4.1292554 
C     4.4766822   -2.3670947   -3.9046068 
C     4.6178265   -3.4237247   -4.7553869 
C     3.7561222   -3.5854277   -5.8044829 
C     2.7470629   -2.6920034   -6.0081532 
C     2.6295828   -1.6541312   -5.1536868 
H     5.1610888   -2.2436577   -3.0706931 
H     5.4195387   -4.1412339   -4.5985395 
H     3.8749359   -4.4300697   -6.4783817 
H     2.0527618   -2.8070595   -6.8336226 
N     1.6493304   -0.6299766   -5.1806050 
C     2.0307569    0.1475879   -4.0358016 
H     0.8553259   -0.4845695   -5.8458437 
H     1.4983747    1.0407234   -3.7111201 
