48
Energy =
C    -1.2734069    1.5813968   -6.8857909 
C    -0.7717162    1.5559020   -5.6249218 
C    -1.1323405    0.5010107   -7.6995314 
C    -0.4888937   -0.5983081   -7.2451383 
C     0.0144806   -0.6295662   -5.9853359 
C    -0.1280256    0.4478244   -5.1655424 
H    -0.8881853    2.4279459   -4.9861102 
H    -0.3805911   -1.4521296   -7.9048059 
H     0.5344522   -1.5198568   -5.6418042 
H    -1.7860076    2.4681808   -7.2423283 
C     0.4481082    0.4279604   -3.7673428 
C     1.8023406    1.1717405   -3.6776134 
H     0.5738200   -0.6155285   -3.4019810 
H    -0.2804139    0.8979490   -3.0684888 
C     2.2883963    1.2910986   -2.2410061 
O    -1.6361378    0.4946787   -9.0044267 
H    -2.1054695    1.3536744   -9.2697350 
O     1.5304678    0.7699622   -1.1932753 
N     2.8145181    0.5085723   -4.5192303 
H     1.6635958    2.2220264   -4.0256702 
H     2.7868196   -0.5267869   -4.3666649 
H     2.5935140    0.6772143   -5.5288341 
N     3.3312077    2.2212761   -1.9275498 
C     4.3191017    1.6407526   -0.9853531 
H     2.8316019    3.0090257   -1.4512128 
C     5.1856770    2.7355329   -0.3679740 
O     5.4639699    2.6918033    0.9920371 
O     5.7608775    3.7450063   -1.1400997 
H     5.4865114    3.6730446   -2.1095821 
C     5.2302703    0.6182426   -1.7200880 
H     3.8097534    1.1782077   -0.1097054 
C     4.6239631   -0.7530918   -1.9854239 
H     6.1630752    0.4520212   -1.1349961 
H     5.5250666    1.0815775   -2.6879582 
C     5.0058498   -1.5976026   -2.9612370 
C     5.9325461   -1.4334292   -3.9423158 
C     6.1321087   -2.4535183   -4.8252930 
C     5.4153482   -3.6122141   -4.7156374 
C     4.4954990   -3.7585775   -3.7210403 
C     4.3143419   -2.7344810   -2.8613742 
H     6.5069838   -0.5172668   -4.0359430 
H     6.8662837   -2.3445019   -5.6203371 
H     5.5821687   -4.4215660   -5.4223068 
H     3.9225468   -4.6737964   -3.6162414 
N     3.4221055   -2.6918587   -1.7601033 
C     3.6947741   -1.3832967   -1.2357898 
H     2.7494550   -3.4192396   -1.4228284 
H     3.1947860   -0.9638924   -0.3635493 
