48
Energy =
C     4.3539287    5.7849049    0.9586258 
C     4.4098948    4.4481310    0.7297468 
C     3.2963504    6.3210691    1.6241025 
C     2.3012395    5.5142148    2.0572997 
C     2.3514469    4.1770288    1.8312427 
C     3.4085433    3.6350857    1.1666028 
H     5.2656943    4.0350841    0.1962764 
H     1.4631785    5.9538202    2.5865467 
H     1.5389895    3.5470806    2.1834322 
H     5.1575042    6.4233089    0.6070478 
C     3.4604226    2.1484564    0.8921136 
C     3.0231380    1.8076550   -0.5545703 
H     2.8277475    1.5902299    1.6181744 
H     4.5025831    1.7970989    1.0679698 
C     3.3462608    0.3559438   -0.9007644 
O     3.2066800    7.6945668    1.8739069 
H     3.9950641    8.2277030    1.5234829 
O     2.3529442   -0.6080551   -0.7566851 
N     1.5872782    2.0930013   -0.7398375 
H     3.5941290    2.4254837   -1.2799587 
H     1.0210145    1.5687606   -0.0304479 
H     1.4013332    3.1147708   -0.6090609 
N     4.7011215   -0.1166969   -0.9965260 
C     5.6843402    0.4824854   -1.9245548 
H     4.9697448   -0.8992846   -0.3591178 
C     6.1412139    1.8703818   -1.4832201 
O     5.8401174    2.9972248   -2.2331529 
O     6.8141752    2.0552108   -0.2780657 
H     7.0020722    1.1766350    0.1841605 
C     5.2886721    0.3299023   -3.4200129 
H     6.6130455   -0.1242925   -1.8316461 
C     3.9802161    0.9725699   -3.8480285 
H     5.2656589   -0.7528525   -3.6664237 
H     6.1076044    0.7527300   -4.0440983 
C     2.7911645    0.3610470   -3.9995010 
C     2.4422769   -0.9348728   -3.7875084 
C     1.1521484   -1.3075051   -4.0238981 
C     0.2400289   -0.3935008   -4.4720443 
C     0.6128826    0.8995275   -4.6863363 
C     1.8939170    1.2450292   -4.4405606 
H     3.1567326   -1.6626748   -3.4158034 
H     0.8464284   -2.3352429   -3.8449544 
H    -0.7871055   -0.6984478   -4.6541748 
H    -0.0978719    1.6365777   -5.0434838 
N     2.4836623    2.5237439   -4.6179325 
C     3.8381245    2.2569988   -4.2277540 
H     2.0457117    3.4119199   -4.9547125 
H     4.6460662    2.9851871   -4.2819331 
