48
 energy: -8.894355009648 gnorm: 0.000870012797 xtb: 6.6.0 (2ccbbd7)
C           -2.56932690914697       -1.85441060372751        0.84266347947809
C           -1.49270675783992       -1.22496126256020        0.26280966116227
C           -3.76981195132801       -1.99639892303218        0.14518149868686
C           -3.84615733140127       -1.48171374454084       -1.14910516423710
C           -2.76572666597707       -0.85382000499995       -1.72207707951825
C           -1.57170156323336       -0.71982670244523       -1.02700110685312
H           -0.57316289775775       -1.11459238102561        0.81188171130527
H           -4.77231480066036       -1.58784765713653       -1.68555021702271
H           -2.84084577513736       -0.45621921972431       -2.71991538156870
H           -2.49681463876447       -2.24257474108570        1.84321252723084
C           -0.40799356564685        0.00235529814489       -1.63194215836818
C           -0.19443776909821        1.39808081779616       -1.03727554332338
H           -0.55450857587721        0.10159020673038       -2.71176292464835
H            0.50012854876692       -0.59764687418691       -1.51051238079849
C            0.98089536236235        2.05963492072566       -1.68063244314798
O           -4.86970302256938       -2.62569425719907        0.69832371102563
H           -4.66143603503848       -2.92290569651090        1.61087792609623
O            0.75603194301564        2.72204889642181       -2.84915655057056
N           -1.36179041059218        2.25285575686571       -1.20520182430568
H           -0.00290998840446        1.30938950518201        0.04302577030727
H           -1.35440099360885        2.60399082225273       -2.15879102009597
H           -2.21583057581856        1.72728690815605       -1.06543932358067
N            2.24879409550424        1.97032978697932       -1.11265877629301
C            3.45586949529179        2.15068316254863       -1.92599954367556
H            2.38473342029118        1.30404734123436       -0.35480320720673
C            3.54011441926696        3.53334682322770       -2.47538881501251
O            4.86421269952840        4.16656502481664       -2.45967157064402
O            2.45032477832390        4.12937056556223       -3.01667779763057
H            1.57893081668079        3.45264715773653       -2.96470064395249
C            3.51977488326819        1.13305870900455       -3.05946163755366
H            4.32769454894252        2.00434587509297       -1.27145716543558
C            4.71469360313689        1.26427680524406       -3.95010680242333
H            2.61733100919542        1.24533919842775       -3.66889475949367
H            3.47836432961020        0.11935494454211       -2.64844812692753
C            5.71085172968914        2.24902582973821       -3.96108430152630
C            6.00923794359566        3.44126015400713       -3.09938635020435
C            7.14322122028337        4.28930253679055       -3.56410894306995
C            7.89060646569462        3.95630935484478       -4.64230915061769
C            7.62745694706574        2.80042510227243       -5.39894723427875
C            6.55197041281588        1.97762314274312       -5.05955701061617
H            5.63850049537319        3.57355219126805       -1.86950605006255
H            7.34866019063147        5.19580853522482       -3.02237091682350
H            8.70503583135035        4.59632321702197       -4.93966855455469
H            8.22911892267748        2.55348749255908       -6.25472222249802
N            6.07686623118692        0.83216023676372       -5.68591892689412
C            4.96797995226565        0.41195495688025       -5.02193740514190
H            6.48070633602981        0.42890488619991       -6.53355459833013
H            4.36657267682979       -0.43821627174922       -5.30094536405721
