48
 energy: -9.276124897558 gnorm: 0.000488575046 xtb: 6.6.0 (2ccbbd7)
C            2.15365899502044        1.10406048531971        4.69520950673860
C            2.72904057033182        0.17051165144447        3.86538141054851
C            1.97156787138893        2.42008109372415        4.26800995117293
C            2.38189067449784        2.75902922436090        2.97913839551795
C            2.95590632402941        1.81971729815198        2.15839836731603
C            3.14486158060251        0.51411487448322        2.58703355841584
H            2.86219290700503       -0.84189343381025        4.20597697539738
H            2.22988027814170        3.76895427341002        2.64209604562493
H            3.24091361973727        2.08057126859099        1.15451007549672
H            1.83721807202483        0.82761259152528        5.68496062711233
C            3.78188691321353       -0.49789208530626        1.68173144484200
C            2.88463858702527       -0.93853053724377        0.51865386862503
H            4.08419889376364       -1.37444602055716        2.26301697253224
H            4.70827126335043       -0.07796895712826        1.28098492482096
C            2.49092740345760        0.23457700642730       -0.36189204209083
O            1.40133094394994        3.38199198016624        5.07961211757029
H            1.16513196950159        2.99189602076273        5.94873214087286
O            1.30561148143479        0.43797698474065       -0.54616491491573
N            3.46676870610092       -2.03845465285636       -0.24700508612116
H            1.93533421730019       -1.30950478049730        0.93957458664706
H            4.42229426295738       -1.82277242955858       -0.49564416657243
H            3.50685922808371       -2.87841566289090        0.31679945857906
N            3.45888934549106        1.08046083093201       -0.90011815416632
C            4.64948183106491        0.58632196557317       -1.59493871717504
H            3.11867915204615        1.89607553993580       -1.41288209461362
C            5.49391321628140        1.76552777649632       -2.02803606501876
O            4.94790270561744        2.83989373396307       -2.15413463067886
O            6.80289202903064        1.51453199115386       -2.28602257672479
H            7.02916191782283        0.57620003070096       -2.09946989875637
C            4.23142946184753       -0.25438943776299       -2.80347049701940
H            5.23978003892967       -0.00807796239303       -0.88778695598841
C            3.35176559401224        0.49376655377809       -3.74563096553208
H            3.68118010820993       -1.13424858364122       -2.45718235312255
H            5.11352723889869       -0.62117892190541       -3.33694676809212
C            3.76090959577696        1.40603980512773       -4.76355046824705
C            5.01987489126876        1.86921640204844       -5.18380779683852
C            5.07635925467615        2.80562751894307       -6.17819077221188
C            3.90651316725015        3.30553571831027       -6.77290639849226
C            2.66998525238819        2.88335125795513       -6.36767003729995
C            2.59003768726608        1.92740533130725       -5.34721732052265
H            5.90835536470587        1.53539942070428       -4.67740649691843
H            6.03343507066622        3.18405895286857       -6.49706467888797
H            3.98608274865765        4.04711112829440       -7.55046670024954
H            1.76863707564495        3.27650537461731       -6.80256322933828
N            1.51083102767350        1.36161008142032       -4.69137704917962
C            1.97912794600986        0.52150352478004       -3.71242274922944
H            0.53518309784035        1.62382348596030       -4.84353655974643
H            1.36150710959648        0.01847721732128       -2.98411285824966
