48
Energy =
C     1.0811579    2.5419763    6.2154370 
C     1.3780920    1.5128299    5.3819632 
C     1.9814438    3.5417587    6.4156127 
C     3.1741348    3.5042308    5.7788909 
C     3.4765895    2.4773941    4.9451260 
C     2.5797495    1.4733330    4.7434228 
H     0.6465718    0.7235660    5.2279022 
H     3.8833380    4.3076142    5.9444222 
H     4.4400602    2.4651144    4.4389743 
H     0.1215468    2.5637678    6.7201726 
C     2.9142851    0.3375665    3.8015848 
C     2.8168626    0.7589319    2.3176444 
H     2.2525120   -0.5404781    3.9764489 
H     3.9487404   -0.0059592    4.0303305 
C     3.4714303   -0.2663515    1.3977769 
O     1.7054139    4.6172730    7.2668812 
H     0.7944565    4.5682458    7.7093193 
O     3.9918037   -1.4561647    1.9001136 
N     1.4033997    0.9579712    1.9536729 
H     3.3849453    1.7099750    2.1782054 
H     0.9940808    1.7034011    2.5652143 
H     1.3548491    1.3534771    0.9857311 
N     3.7426233    0.0750303    0.0327858 
C     5.1411780    0.4076093   -0.3017437 
H     2.9495184    0.0849798   -0.6455002 
C     5.5885614    1.6471700    0.4761925 
O     5.3205321    2.9140977   -0.0299455 
O     6.1717415    1.5445631    1.7396611 
H     6.2736689    0.5815994    2.0316282 
C     5.2724204    0.6369180   -1.8263268 
H     5.8229370   -0.4203956   -0.0072764 
C     5.4300939   -0.5716320   -2.7492083 
H     6.1725322    1.2733716   -1.9953932 
H     4.4137566    1.2494222   -2.1809779 
C     5.1731022   -1.8961918   -2.5810752 
C     4.7279302   -2.6070714   -1.5072627 
C     4.5559921   -3.9535948   -1.6300178 
C     4.8250110   -4.5803966   -2.8103990 
C     5.2694791   -3.8642471   -3.8768003 
C     5.4339586   -2.5324967   -3.7329823 
H     4.5114806   -2.1610141   -0.5561392 
H     4.2042588   -4.5308977   -0.7777318 
H     4.6852563   -5.6551987   -2.8977145 
H     5.4884999   -4.3469082   -4.8234408 
N     5.8794889   -1.6334987   -4.7323107 
C     5.8424811   -0.3962574   -4.0205967 
H     6.1563543   -1.8250492   -5.7230728 
H     6.1043173    0.5638912   -4.4623300 
