48
Energy =
C     2.0632280    4.6291429    1.7148713 
C     1.5079178    3.3902080    1.7407829 
C     1.3787238    5.6742667    1.1784392 
C     0.1428015    5.4710419    0.6681202 
C    -0.4137755    4.2333871    0.6838118 
C     0.2637491    3.1855128    1.2273805 
H     2.0765834    2.5537684    2.1506869 
H    -0.3906906    6.3110806    0.2376962 
H    -1.4012190    4.0877875    0.2539889 
H     3.0626750    4.7784274    2.1107677 
C    -0.3381759    1.7965565    1.2122059 
C     0.1612565    0.9748147    0.0024949 
H    -1.4470553    1.8694256    1.1835344 
H    -0.0912448    1.2607604    2.1568348 
C     1.6466501    0.6542431    0.1270882 
O     1.9199030    6.9639583    1.1384399 
H     2.8770891    7.0149922    1.4715505 
O     2.1097123    0.0935572    1.3163306 
N    -0.6204200   -0.2630197   -0.1226625 
H     0.0109459    1.5785891   -0.9208689 
H    -0.4642373   -0.8492501    0.7332881 
H    -1.6405083   -0.0385844   -0.1746115 
N     2.4866624    0.5918907   -1.0420734 
C     3.8902933    0.9469262   -0.7232036 
H     2.1052626    1.2578543   -1.7508841 
C     4.0751432    2.4348938   -0.4236560 
O     4.5453449    2.8235423    0.8254497 
O     3.8245889    3.4248909   -1.3749817 
H     3.5114459    3.0367167   -2.2506624 
C     4.7959908    0.4735335   -1.8851339 
H     4.2216282    0.4272091    0.2112258 
C     5.1585836   -0.9903819   -1.7412662 
H     5.7354189    1.0725697   -1.9058669 
H     4.2966320    0.6431371   -2.8634305 
C     4.3872576   -2.0558670   -2.0199269 
C     3.1271987   -2.1170776   -2.5209393 
C     2.5554665   -3.3436150   -2.6970707 
C     3.2469314   -4.4794356   -2.3780609 
C     4.5122920   -4.3949690   -1.8785271 
C     5.0540809   -3.1702047   -1.7115188 
H     2.5743171   -1.2175101   -2.7671344 
H     1.5409229   -3.4171522   -3.0833445 
H     2.7840744   -5.4539018   -2.5152652 
H     5.0725947   -5.2853918   -1.6130608 
N     6.3412095   -2.8669894   -1.1942443 
C     6.3246366   -1.4347385   -1.2387311 
H     7.0978449   -3.5146872   -0.8742067 
H     7.1372429   -0.8010291   -0.8889703 
