48
Energy =
C    -1.2313672    0.3815261   -5.4413272 
C    -0.3338990   -0.1095434   -4.5496197 
C    -2.0453280    1.4139750   -5.0941768 
C    -1.9540412    1.9490972   -3.8563291 
C    -1.0577528    1.4635973   -2.9614816 
C    -0.2406186    0.4284597   -3.3023379 
H     0.3079106   -0.9338490   -4.8446712 
H    -2.6068271    2.7731709   -3.5924680 
H    -0.9981529    1.9118832   -1.9737895 
H    -1.2952185   -0.0530161   -6.4330405 
C     0.7714725   -0.1067284   -2.3094835 
C     2.1774361    0.5244225   -2.4657423 
H     0.8462921   -1.2118245   -2.4136196 
H     0.4096334    0.0633722   -1.2712026 
C     2.8348902    0.1597924   -3.7913506 
O    -2.9832522    1.9421911   -5.9875620 
H    -2.9758382    1.4990337   -6.8998141 
O     3.1899603    1.1395644   -4.7122759 
N     2.1318121    1.9796543   -2.2424658 
H     2.8370653    0.0831905   -1.6859764 
H     1.6245412    2.4469675   -3.0322017 
H     1.6109233    2.1941993   -1.3608858 
N     3.2711608   -1.1871701   -4.0180506 
C     4.7212322   -1.4437590   -3.9134823 
H     2.5677239   -1.9140287   -4.2758012 
C     5.3773059   -1.6084653   -5.2820164 
O     6.5996116   -0.9912401   -5.5199897 
O     4.8450295   -2.4399752   -6.2691819 
H     3.9631227   -2.8355704   -5.9861868 
C     4.9518550   -2.6843016   -3.0266325 
H     5.2416403   -0.5725711   -3.4467446 
C     4.4098191   -2.4681598   -1.6315081 
H     6.0394771   -2.9146400   -2.9641736 
H     4.4639825   -3.5741290   -3.4842461 
C     4.9808338   -1.7536824   -0.6495870 
C     6.1703524   -1.0995280   -0.6280621 
C     6.5143298   -0.4188224    0.5027211 
C     5.6730045   -0.4003157    1.5809451 
C     4.4820799   -1.0625611    1.5348728 
C     4.1659488   -1.7313820    0.4063825 
H     6.8384509   -1.1103006   -1.4846142 
H     7.4616308    0.1140126    0.5460571 
H     5.9536863    0.1467330    2.4777345 
H     3.8012202   -1.0536900    2.3793395 
N     2.9746433   -2.4595919    0.1444278 
C     3.2121645   -2.9000143   -1.1987223 
H     2.1452140   -2.6204595    0.7608942 
H     2.5049113   -3.4762993   -1.7898613 
