48
Energy =
C    -2.4531730    1.7804326   -2.5493773 
C    -1.7761277    1.2090468   -3.5776754 
C    -2.4893623    1.1726323   -1.3334024 
C    -1.8463094   -0.0036060   -1.1544341 
C    -1.1673888   -0.5788498   -2.1785804 
C    -1.1341711    0.0218406   -3.3999881 
H    -1.7460346    1.7101596   -4.5424837 
H    -1.8778448   -0.4760610   -0.1785432 
H    -0.6430321   -1.5172814   -2.0109728 
H    -2.9615368    2.7267483   -2.7005349 
C    -0.3460981   -0.5952310   -4.5346827 
C     1.0516819    0.0431109   -4.6712425 
H    -0.9070545   -0.4655417   -5.4860876 
H    -0.2388011   -1.6935498   -4.3847341 
C     1.8871752   -0.1520413   -3.4149687 
O    -3.1739458    1.7360600   -0.2523051 
H    -3.6285993    2.6176498   -0.4646226 
O     2.1617887   -1.4371398   -2.9561670 
N     1.7384089   -0.5111851   -5.8495823 
H     0.9361439    1.1443390   -4.8141865 
H     1.8162266   -1.5545187   -5.7623975 
H     1.1844962   -0.3052658   -6.7147026 
N     2.1207707    0.9492865   -2.5282695 
C     3.4221811    1.6472353   -2.5691113 
H     1.3609182    1.2183160   -1.8636042 
C     3.4485044    2.7568107   -3.6195116 
O     3.4905343    4.0791843   -3.1964302 
O     3.4288908    2.4995092   -4.9907228 
H     3.3618349    1.5143663   -5.1972161 
C     4.5930052    0.6386100   -2.6904289 
H     3.5399354    2.1773839   -1.5952685 
C     5.9233468    1.2814285   -2.3610562 
H     4.6221556    0.1707343   -3.6987304 
H     4.4160378   -0.2036667   -1.9823333 
C     6.7965855    1.8353440   -3.2193579 
C     6.7470549    1.9392339   -4.5724931 
C     7.7759120    2.5640146   -5.2134792 
C     8.8287402    3.0688555   -4.5021134 
C     8.8585251    2.9526319   -3.1443423 
C     7.8285607    2.3305983   -2.5329383 
H     5.9133654    1.5457983   -5.1439747 
H     7.7542400    2.6658985   -6.2959653 
H     9.6425911    3.5690747   -5.0210035 
H     9.6839058    3.3514163   -2.5645491 
N     7.6636798    2.1142384   -1.1387004 
C     6.4022603    1.4348897   -1.1135952 
H     8.2961052    2.3772890   -0.3484286 
H     5.8996428    1.1066768   -0.2062919 
