48
Energy =
C     0.1214377    4.4147297    1.3223128 
C     0.3461672    3.9780118    0.0573310 
C    -0.8797666    3.8722171    2.0647167 
C    -1.6479642    2.8928357    1.5360307 
C    -1.4245363    2.4491024    0.2732205 
C    -0.4245514    2.9903916   -0.4755879 
H     1.1591858    4.4105060   -0.5216096 
H    -2.4423561    2.4665545    2.1389357 
H    -2.0493732    1.6572268   -0.1304970 
H     0.7472069    5.1943680    1.7412831 
C    -0.1637288    2.4892528   -1.8816520 
C     0.9632864    1.4280583   -1.9675560 
H     0.0893109    3.3516504   -2.5385837 
H    -1.0968979    2.0611280   -2.3104698 
C     2.3355309    1.9969302   -1.6343505 
O    -1.1409340    4.3008320    3.3707910 
H    -0.5144867    5.0252487    3.7046965 
O     2.7263941    2.1499761   -0.3062018 
N     0.6476971    0.2457481   -1.1492265 
H     1.0324012    1.1016235   -3.0307989 
H     0.6876141    0.5043771   -0.1333172 
H    -0.3264084   -0.0770116   -1.3517766 
N     3.0765983    2.6853508   -2.6492843 
C     4.5450908    2.5475865   -2.6205478 
H     2.5753912    3.2262628   -3.3916456 
C     5.2357119    3.6084499   -3.4721052 
O     4.5976109    4.1382925   -4.5874180 
O     6.5502651    3.9981432   -3.2177285 
H     6.9355718    3.5518986   -2.3991756 
C     4.9642038    1.1185774   -3.0415731 
H     4.9016119    2.7330440   -1.5811704 
C     4.2883774    0.6480684   -4.3168432 
H     4.7421947    0.4267446   -2.2032180 
H     6.0668506    1.0724432   -3.1837889 
C     3.3534987   -0.3124057   -4.4343543 
C     2.7770386   -1.0972874   -3.4853653 
C     1.8305565   -1.9983963   -3.8741144 
C     1.4793891   -2.1073180   -5.1904128 
C     2.0721665   -1.3141538   -6.1265576 
C     3.0045330   -0.4285090   -5.7176976 
H     3.0384609   -1.0137845   -2.4354198 
H     1.3510648   -2.6306793   -3.1305302 
H     0.7242774   -2.8288049   -5.4920566 
H     1.8050301   -1.3869135   -7.1753814 
N     3.7273929    0.4856374   -6.5276422 
C     4.5364508    1.1450409   -5.5430236 
H     3.6863486    0.6340578   -7.5624446 
H     5.2359576    1.9534586   -5.7600570 
