48
Energy =
C     4.1699769   -2.6556531    0.7575607 
C     2.9632410   -2.1325721    0.4229764 
C     4.8497397   -2.1734383    1.8320618 
C     4.3170320   -1.1683038    2.5637952 
C     3.1106456   -0.6411857    2.2338406 
C     2.4219641   -1.1269601    1.1656490 
H     2.4414086   -2.5085905   -0.4570852 
H     4.8704809   -0.7888460    3.4162949 
H     2.7047745    0.1747980    2.8272531 
H     4.5943149   -3.4531873    0.1572399 
C     1.1005651   -0.5073886    0.7663889 
C     1.3024558    0.7221134   -0.1477070 
H     0.5414248   -0.2075627    1.6800002 
H     0.4640143   -1.2582795    0.2444540 
C     2.0185919    0.3483425   -1.4413279 
O     6.0968806   -2.6869922    2.2010442 
H     6.4033294   -3.4649433    1.6275817 
O     1.5760875   -0.7371524   -2.1901264 
N     0.0043364    1.3480273   -0.4387749 
H     1.9399636    1.4653809    0.3849369 
H    -0.6116758    0.6640684   -0.9427289 
H    -0.4758515    1.6118317    0.4535116 
N     3.0614354    1.1682219   -1.9850730 
C     4.3079879    1.1145476   -1.1771314 
H     2.6718029    2.1353196   -2.0877698 
C     4.5602209    2.4002401   -0.3885113 
O     4.2853172    3.6331520   -0.9654483 
O     5.1033246    2.3703233    0.8963155 
H     5.3580886    1.4386347    1.1890583 
C     5.4776673    0.8162111   -2.1313540 
H     4.2730017    0.2931791   -0.4249835 
C     5.5152036   -0.6545067   -2.4918728 
H     6.4452729    1.1255470   -1.6807978 
H     5.3653176    1.4222308   -3.0593962 
C     6.3230148   -1.5951464   -1.9734670 
C     7.3087716   -1.4867882   -1.0444594 
C     7.9798744   -2.6153506   -0.6758953 
C     7.6553830   -3.8237936   -1.2270482 
C     6.6556292   -3.9111888   -2.1492101 
C     6.0100195   -2.7800128   -2.5019992 
H     7.5639846   -0.5346244   -0.5906622 
H     8.7719847   -2.5532560    0.0672806 
H     8.1944724   -4.7189108   -0.9264777 
H     6.3795167   -4.8625886   -2.5913851 
N     4.9286955   -2.6609501   -3.4136858 
C     4.6603241   -1.2534409   -3.3401266 
H     4.4522148   -3.3959804   -3.9855089 
H     3.8332157   -0.7529969   -3.8457886 
