48
Energy =
C    -3.6430598    3.4077113    0.2492865 
C    -2.2993471    3.5078136    0.0868033 
C    -4.1545389    2.7637898    1.3324093 
C    -3.3162956    2.2244128    2.2464856 
C    -1.9718695    2.3218505    2.0893259 
C    -1.4549869    2.9676264    1.0081357 
H    -1.9043063    4.0244351   -0.7844502 
H    -3.7362286    1.7125217    3.1053172 
H    -1.3154579    1.8771356    2.8324885 
H    -4.3072437    3.8431109   -0.4894150 
C     0.0424107    3.0652693    0.8160293 
C     0.5727500    2.0294731   -0.2087371 
H     0.5748655    2.9410591    1.7851344 
H     0.2839892    4.0983836    0.4754195 
C     2.0348042    2.2798392   -0.5715558 
O    -5.5340346    2.6407320    1.5284861 
H    -6.0931500    3.0771954    0.8037860 
O     2.5142100    3.5831939   -0.5310497 
N     0.3771716    0.6595977    0.3028205 
H     0.0195853    2.1483155   -1.1696352 
H     0.7821183    0.5743713    1.2657453 
H    -0.6470142    0.4493907    0.3749612 
N     2.8057007    1.2216781   -1.1851065 
C     4.2154863    1.3562679   -1.6373608 
H     2.2689493    0.3604875   -1.4384469 
C     4.8255004    2.7650688   -1.5533587 
O     4.7198096    3.6370934   -2.6348506 
O     5.5344537    3.1829020   -0.4243701 
H     5.4081096    2.5484750    0.3495077 
C     4.3246520    0.7701619   -3.0649349 
H     4.8358154    0.7195071   -0.9692341 
C     5.7653047    0.6094750   -3.5025928 
H     3.7763201    1.4272890   -3.7785332 
H     3.8267436   -0.2225626   -3.1127845 
C     6.5946301   -0.3944028   -3.1768481 
C     6.3676046   -1.5004018   -2.4224557 
C     7.3952064   -2.3770920   -2.2328126 
C     8.6202340   -2.1368863   -2.7915154 
C     8.8251784   -1.0179355   -3.5431816 
C     7.7922705   -0.1672008   -3.7180476 
H     5.3965906   -1.6905839   -1.9753060 
H     7.2402315   -3.2704873   -1.6328195 
H     9.4349104   -2.8391439   -2.6338907 
H     9.7916112   -0.8099051   -3.9895610 
N     7.7966060    1.0511331   -4.4480990 
C     6.4464178    1.4942311   -4.2525030 
H     8.5727586    1.4989832   -4.9871425 
H     6.0430289    2.4318777   -4.6329742 
