48
Energy =
C     0.7525356   -5.6751488   -4.6903258 
C     0.4068165   -4.4990625   -4.1083525 
C     1.1588572   -6.7229990   -3.9246747 
C     1.2159590   -6.5859435   -2.5803433 
C     0.8703427   -5.4123079   -1.9930273 
C     0.4602396   -4.3613429   -2.7547812 
H     0.0867510   -3.6686134   -4.7321478 
H     1.5438396   -7.4280489   -1.9810115 
H     0.9297027   -5.3185990   -0.9118879 
H     0.7043597   -5.7744997   -5.7691584 
C     0.0903439   -3.0438671   -2.1087561 
C     1.2315763   -2.0015072   -2.1956785 
H    -0.1992661   -3.1905117   -1.0447533 
H    -0.8196939   -2.6454727   -2.6111914 
C     0.7670386   -0.6092810   -1.7740177 
O     1.5244570   -7.9478058   -4.4929747 
H     1.4458862   -7.9720400   -5.5036115 
O    -0.5613067   -0.3826774   -1.4296767 
N     2.3867897   -2.4364583   -1.3914742 
H     1.5450927   -1.9060821   -3.2598343 
H     2.0726203   -2.6665576   -0.4175932 
H     2.7876952   -3.3132406   -1.8009916 
N     1.5905403    0.5304693   -2.0446212 
C     2.6554794    0.8376788   -1.0692558 
H     1.4023908    1.0674592   -2.9177796 
C     2.5991083    2.2777452   -0.5604554 
O     2.9304206    2.5269513    0.7653025 
O     2.3363052    3.3719735   -1.3868951 
H     2.1856006    3.0999832   -2.3427501 
C     4.0366481    0.4655384   -1.6531088 
H     2.5127769    0.2177678   -0.1511117 
C     4.3454005    1.1657510   -2.9586039 
H     4.0671180   -0.6367279   -1.8123578 
H     4.8318811    0.6782705   -0.9053645 
C     4.9530948    2.3520959   -3.1169661 
C     5.4471189    3.2100310   -2.1874105 
C     6.0139470    4.3740495   -2.6159064 
C     6.0808565    4.6596119   -3.9515599 
C     5.5785842    3.7831812   -4.8669899 
C     5.0213740    2.6388148   -4.4179850 
H     5.3856188    2.9941092   -1.1239636 
H     6.4080290    5.0813815   -1.8897558 
H     6.5316706    5.5913779   -4.2839095 
H     5.6199289    3.9967483   -5.9296199 
N     4.4339227    1.6065130   -5.1966439 
C     4.0207351    0.6914073   -4.1742420 
H     4.3289985    1.5383243   -6.2346645 
H     3.5095399   -0.2512630   -4.3593574 
