48
Energy =
C     0.3700341    6.0487773   -5.4599116 
C     0.4000538    5.4248794   -4.2549972 
C     1.5274150    6.3076358   -6.1252180 
C     2.7085734    5.9405239   -5.5789060 
C     2.7450947    5.3161430   -4.3751123 
C     1.5893840    5.0555695   -3.7028328 
H    -0.5352667    5.2211396   -3.7391266 
H     3.6261271    6.1529411   -6.1174222 
H     3.7075183    5.0321187   -3.9562178 
H    -0.5821597    6.3390089   -5.8912361 
C     1.6245226    4.3414071   -2.3685076 
C     1.7738867    2.8062618   -2.5228747 
H     0.7102532    4.5722993   -1.7770169 
H     2.4796008    4.7432258   -1.7693622 
C     1.9633993    2.1601240   -1.1603150 
O     1.5305115    6.9460131   -7.3691972 
H     0.6081815    7.1979395   -7.7073329 
O     1.0563294    2.4296484   -0.1420331 
N     0.6117097    2.2216328   -3.2207409 
H     2.7027604    2.5896442   -3.0993948 
H    -0.2736886    2.4772554   -2.7181701 
H     0.5465573    2.5928930   -4.1977726 
N     2.9248943    1.1147008   -0.9572555 
C     4.3737595    1.4125611   -1.0341659 
H     2.5590230    0.1423755   -0.8508984 
C     4.6832194    2.9104380   -1.0156008 
O     4.8230680    3.6009119   -2.2128367 
O     4.6714132    3.6433863    0.1655035 
H     4.4204323    3.0718846    0.9596712 
C     4.9863866    0.7180947   -2.2720976 
H     4.8673673    0.9952846   -0.1282509 
C     4.8584774   -0.7874904   -2.2075012 
H     6.0663927    0.9819579   -2.3434849 
H     4.5264903    1.1036094   -3.2052841 
C     3.8792107   -1.5405451   -2.7351961 
C     2.7863926   -1.1735849   -3.4542729 
C     1.9246546   -2.1469946   -3.8660473 
C     2.1640001   -3.4574347   -3.5569171 
C     3.2658455   -3.8021744   -2.8316953 
C     4.1039966   -2.8211125   -2.4362003 
H     2.5870381   -0.1335402   -3.6932893 
H     1.0406439   -1.8783088   -4.4397618 
H     1.4712356   -4.2273453   -3.8873164 
H     3.4676580   -4.8361409   -2.5733578 
N     5.2881857   -2.9628506   -1.6642742 
C     5.7115199   -1.5974829   -1.5569710 
H     5.7284167   -3.8292858   -1.2780735 
H     6.5965467   -1.2684721   -1.0170369 
