48
Energy =
C    -2.3978162    4.4571698   -1.8774967 
C    -2.0366225    3.2326288   -1.4172136 
C    -1.5929693    5.1262784   -2.7456154 
C    -0.4294443    4.5656125   -3.1453144 
C    -0.0661088    3.3392541   -2.6931378 
C    -0.8679545    2.6630253   -1.8237668 
H    -2.6888355    2.7143681   -0.7193126 
H     0.2106152    5.1144961   -3.8273729 
H     0.8785989    2.9121748   -3.0191724 
H    -3.3314201    4.9004754   -1.5481493 
C    -0.4606808    1.2979010   -1.3029549 
C     0.5122638    1.3565405   -0.0981888 
H     0.0038881    0.7140836   -2.1282027 
H    -1.3649014    0.7213119   -1.0068617 
C     1.8731836    1.9303994   -0.4822171 
O    -1.9388348    6.3870572   -3.2425680 
H    -2.8133499    6.7476999   -2.8773191 
O     2.0319018    3.3113641   -0.4961793 
N    -0.0896977    2.0692277    1.0410033 
H     0.7037672    0.3100008    0.2297982 
H    -0.1937422    3.0883738    0.8134223 
H    -1.0454412    1.6911487    1.2370894 
N     2.8312658    1.0673772   -1.1399017 
C     4.1899650    1.4959788   -1.5632946 
H     2.5021317    0.1114947   -1.4057695 
C     4.5407310    2.9743587   -1.3257034 
O     4.2609962    3.9245635   -2.3044950 
O     5.1586211    3.3925415   -0.1443926 
H     5.1747634    2.6617213    0.5506010 
C     4.3891509    1.0805415   -3.0407462 
H     4.9178012    0.9152607   -0.9554891 
C     5.8362663    1.1967387   -3.4774752 
H     3.7195537    1.6826225   -3.6916753 
H     4.0803513    0.0208233   -3.1761155 
C     6.3770840    2.1173180   -4.2955430 
C     5.7992304    3.1597595   -4.9480608 
C     6.5862044    3.9540028   -5.7289534 
C     7.9234656    3.6976433   -5.8492459 
C     8.4826948    2.6452148   -5.1884109 
C     7.6841415    1.8746449   -4.4202240 
H     4.7400770    3.3748687   -4.8545398 
H     6.1473602    4.7989514   -6.2540256 
H     8.5437213    4.3377344   -6.4714685 
H     9.5422647    2.4290974   -5.2719610 
N     8.0673557    0.7391440   -3.6579370 
C     6.8127890    0.3611558   -3.0799146 
H     9.0097645    0.2984414   -3.5532528 
H     6.6775860   -0.4857017   -2.4119232 
