48
 energy: -9.062439845733 gnorm: 0.000834409514 xtb: 6.6.0 (2ccbbd7)
C            3.36344842705977        5.10100888824961        4.00181019151225
C            2.85467819040282        4.51930219468597        2.86468454785625
C            4.73959440801175        5.27204679273175        4.15674968138118
C            5.57872581297416        4.84065041293506        3.12963431817592
C            5.06258543259065        4.25967601473211        1.99602733231960
C            3.69345838035667        4.09298773847538        1.84534479382684
H            1.79182972606665        4.38540073738350        2.75684606092809
H            6.63913243154561        4.97298474489425        3.24921465000417
H            5.72189653172555        3.92694250626821        1.21264489967852
H            2.70385843195314        5.42804322794616        4.78563477561074
C            3.13296661218253        3.41327199155885        0.63608896077583
C            2.70656867654604        1.96842604361392        0.91317229832821
H            3.87207524426582        3.43249018289190       -0.16821830493154
H            2.27667087837571        3.98264840542807        0.25875218365367
C            2.01088417577539        1.35937230509322       -0.28583161722851
O            5.28424874037800        5.84810794200413        5.28872613384436
H            4.57174394787255        6.09470321342725        5.91706157005533
O            0.80211737079443        1.47823175388915       -0.37938465245124
N            3.79521014737213        1.12497318729601        1.39282808761612
H            1.95644615370314        1.98306547584571        1.72075195797176
H            4.44189030953326        0.91133531012833        0.64704359599784
H            4.31273813402570        1.59261020027721        2.12623603794898
N            2.73644441496191        0.72857215318976       -1.29878200412058
C            3.86860268386403        1.39043537526560       -1.97172030883825
H            2.17389425666392        0.26900703113805       -2.01115332582650
C            3.40546952218182        2.67312385278110       -2.60864241094924
O            4.32620970743436        3.61594746412767       -2.95602205795463
O            2.04958360442286        2.86222970599313       -2.81655009334242
H            1.51934843015258        2.39769794073466       -2.11857479082499
C            4.53092078948405        0.43328070220085       -2.98980417954533
H            4.60872241888144        1.64025816874520       -1.20273046089276
C            6.02396162270353        0.44211358987548       -2.94580893463761
H            4.18664919117643        0.67590394442704       -4.00031052711287
H            4.18449738366304       -0.58708350383725       -2.79280843520938
C            6.86550353563442        1.58924754417489       -2.88105345960480
C            6.59131164324434        2.95904302335001       -2.83868049324256
C            7.62749109839877        3.84138449812423       -2.77565379478175
C            8.95854882955704        3.39087059565491       -2.75305650568351
C            9.25461610851881        2.05503708318522       -2.79530445041644
C            8.19868935307109        1.13624115015757       -2.86077293615809
H            5.41059253453075        3.29929918056655       -2.89047479360479
H            7.41998411957931        4.89806422199281       -2.74967664128895
H            9.75779959976951        4.11171165426452       -2.70530985701873
H           10.26970966048259        1.70106536756527       -2.78231917224938
N            8.16310023404028       -0.24605936080866       -2.91796759919269
C            6.85182799812598       -0.65363932336111       -2.97331698836074
H            8.98714037999158       -0.84959047441664       -2.93307778074619
H            6.52851961532872       -1.68058112924442       -3.02789078928677
