48
Energy =
C    -2.6133808   -1.5238442   -4.6059920 
C    -1.9675001   -1.8694736   -3.4637525 
C    -2.0357150   -0.6635938   -5.4874237 
C    -0.8131185   -0.1517053   -5.2124716 
C    -0.1680282   -0.4929271   -4.0693462 
C    -0.7382005   -1.3513659   -3.1822499 
H    -2.4414410   -2.5671497   -2.7804822 
H    -0.3422541    0.5342288   -5.9102098 
H     0.8031741   -0.0539144   -3.8675305 
H    -3.5906949   -1.9426617   -4.8154611 
C     0.0033049   -1.7910832   -1.9294922 
C     0.5523524   -0.6467706   -1.0250828 
H     0.8316965   -2.4636152   -2.2424323 
H    -0.6655414   -2.4137002   -1.2983230 
C     2.0131906   -0.2825137   -1.3497643 
O    -2.6829182   -0.2990341   -6.6765203 
H    -3.5954599   -0.7202556   -6.7882609 
O     2.8968270   -1.3626259   -1.2947881 
N    -0.3737909    0.5019162   -0.9760013 
H     0.6180377   -1.0531984    0.0078123 
H    -0.2967495    1.0579988   -1.8609455 
H    -1.3604767    0.1656153   -0.9034481 
N     2.5463644    1.0019187   -0.9696767 
C     3.6382399    1.5616735   -1.8368513 
H     1.7629591    1.6913320   -0.9564863 
C     3.3015112    2.8877235   -2.5070269 
O     3.2183797    4.0555269   -1.7329495 
O     3.1822510    2.9705566   -3.9059490 
H     2.9977643    1.9877615   -4.4427850 
C     4.3640806    0.6134722   -2.8266525 
H     4.4397628    1.8475262   -1.1248064 
C     3.5362108    0.0919184   -3.9832782 
H     4.8793243   -0.1859188   -2.2617546 
H     5.1618407    1.2060168   -3.3188655 
C     3.5728683   -1.1695859   -4.4463739 
C     4.1386226   -2.2863067   -3.8969986 
C     4.0590834   -3.4664582   -4.5733218 
C     3.4407744   -3.5217891   -5.7871132 
C     2.9060678   -2.3946384   -6.3311711 
C     2.9879883   -1.2347699   -5.6429103 
H     4.6320002   -2.2619320   -2.9329193 
H     4.4902170   -4.3647196   -4.1408091 
H     3.3804604   -4.4623004   -6.3260025 
H     2.4256262   -2.4088040   -7.3020473 
N     2.5288705    0.0272835   -6.1120610 
C     2.8102187    0.9613079   -5.0100222 
H     2.0899519    0.2055290   -7.0482228 
H     2.4470124    1.9490972   -5.4605738 
