48
Energy =
C     2.5019240    5.4365836   -1.7127922 
C     2.0393904    4.8802914   -0.5648377 
C     1.8695176    5.1976420   -2.8924107 
C     0.7717478    4.4089952   -2.9134674 
C     0.3116332    3.8399658   -1.7708507 
C     0.9492215    4.0648123   -0.5876837 
H     2.5578259    5.0880896    0.3661668 
H     0.2748406    4.2277097   -3.8603936 
H    -0.5568700    3.1866788   -1.8145290 
H     3.3865085    6.0640215   -1.6861217 
C     0.4622385    3.3852043    0.6766977 
C     1.2183165    2.0751433    1.0342422 
H    -0.6201570    3.1463770    0.5694887 
H     0.5168652    4.0995683    1.5271791 
C     1.4874676    1.1569559   -0.1570921 
O     2.3262878    5.7443944   -4.0961078 
H     3.1838355    6.2792461   -4.0027407 
O     0.5154501    0.2260413   -0.5020121 
N     2.4317200    2.3590989    1.8182704 
H     0.5369565    1.4737309    1.6831006 
H     3.0367364    3.0561913    1.3249258 
H     2.1659543    2.7900235    2.7346684 
N     2.5040885    1.4471839   -1.1272983 
C     3.9152014    1.2370400   -0.7571243 
H     2.2148650    1.8888982   -2.0259344 
C     4.7160426    2.5209106   -0.9223099 
O     5.3314299    3.0814253    0.1891848 
O     4.8494580    3.1667931   -2.1512310 
H     4.3572060    2.6849596   -2.8876482 
C     4.4949232    0.0887721   -1.6077326 
H     4.0121289    0.9660623    0.3212102 
C     3.9657764   -1.2498184   -1.1439173 
H     5.6064609    0.0843640   -1.5501858 
H     4.2365299    0.2374608   -2.6795772 
C     4.4474888   -1.9990433   -0.1396623 
C     5.5107068   -1.7811910    0.6764982 
C     5.7851956   -2.7038936    1.6429483 
C     4.9996217   -3.8150751    1.7803221 
C     3.9335268   -4.0093418    0.9528102 
C     3.6849964   -3.0842208    0.0023045 
H     6.1303848   -0.8949206    0.5758471 
H     6.6301895   -2.5524351    2.3104340 
H     5.2222415   -4.5439954    2.5557556 
H     3.2945948   -4.8803786    1.0531797 
N     2.6214404   -3.0842277   -0.9385671 
C     2.8705937   -1.8553641   -1.6348571 
H     1.8677035   -3.7921949   -1.0951609 
H     2.2271947   -1.4466469   -2.4112716 
