48
Energy =
C     4.7063231    2.9791418    4.8889133 
C     3.8242953    2.3356774    4.0826401 
C     4.5201102    4.2906650    5.1965429 
C     3.4517598    4.9498277    4.6935397 
C     2.5664523    4.3112045    3.8871219 
C     2.7460622    2.9974493    3.5797470 
H     3.9863619    1.2877992    3.8438638 
H     3.3163242    5.9962110    4.9442702 
H     1.7168985    4.8591043    3.4880596 
H     5.5610349    2.4426905    5.2864303 
C     1.7734168    2.2838841    2.6667623 
C     2.2927391    2.1918452    1.2091935 
H     0.7781915    2.7827758    2.6814642 
H     1.5897340    1.2600163    3.0657884 
C     1.4239477    1.2640802    0.3513024 
O     5.4097900    4.9831633    6.0243145 
H     6.1841969    4.4204956    6.3588389 
O     0.2354884    0.7781775    0.8859914 
N     2.3579477    3.5362683    0.6161690 
H     3.3074676    1.7388741    1.2453680 
H     1.4565373    4.0499057    0.7645968 
H     3.1242687    4.0952639    1.0620828 
N     1.7696240    0.8051638   -0.9755139 
C     3.0822333    1.2087120   -1.5379128 
H     0.9873489    1.1049826   -1.6034221 
C     3.1271285    2.6515956   -2.0239296 
O     4.3122109    3.3681453   -1.9194654 
O     2.0754786    3.1954748   -2.7497253 
H     1.3656904    3.5049038   -2.1004499 
C     3.3939386    0.2452115   -2.7022952 
H     3.8903131    1.1045673   -0.7837096 
C     4.8284184    0.3657875   -3.1728891 
H     2.7001854    0.4495107   -3.5505970 
H     3.1847394   -0.8008164   -2.3880597 
C     5.8827722   -0.3369265   -2.7291111 
C     5.9429778   -1.3243246   -1.7981014 
C     7.1584095   -1.8755884   -1.5162597 
C     8.2828258   -1.4341208   -2.1572726 
C     8.1990249   -0.4375240   -3.0836802 
C     6.9851702    0.0891350   -3.3483753 
H     5.0542292   -1.6734651   -1.2812218 
H     7.2344183   -2.6686658   -0.7759897 
H     9.2484506   -1.8764570   -1.9247883 
H     9.0821876   -0.0703783   -3.5956926 
N     6.6851235    1.1396952   -4.2555807 
C     5.2675003    1.2653747   -4.0721316 
H     7.3234027    1.6700549   -4.8923208 
H     4.6454629    2.0274112   -4.5442284 
