48
Energy =
C     7.1329260    4.3069736    1.4184317 
C     6.4149191    3.3218545    2.0150272 
C     6.5093237    5.2326601    0.6422582 
C     5.1720032    5.1627283    0.4627453 
C     4.4484415    4.1837640    1.0616311 
C     5.0656881    3.2516482    1.8397714 
H     6.9284147    2.5898426    2.6332501 
H     4.6927468    5.9006400   -0.1709056 
H     3.3740932    4.1410892    0.9040636 
H     8.2068124    4.3545793    1.5663177 
C     4.2630563    2.1505936    2.5083566 
C     4.1136370    0.8600995    1.6612493 
H     3.2495028    2.5293167    2.7711194 
H     4.7368311    1.8860717    3.4795507 
C     3.2259509    1.0438204    0.4368179 
O     7.2159401    6.2684414    0.0248606 
H     8.2200916    6.2236003    0.1626227 
O     1.9102626    0.5900309    0.4874761 
N     5.4255951    0.2814737    1.3254188 
H     3.5638469    0.1180211    2.2872891 
H     5.9512703    0.9222314    0.6854267 
H     5.9955092    0.1575416    2.1941150 
N     3.6260958    1.8898603   -0.6510818 
C     4.1661499    1.0970530   -1.7747460 
H     2.7816815    2.4198313   -0.9630088 
C     4.9248778    1.9894613   -2.7495110 
O     4.4824921    1.9902052   -4.0664094 
O     6.0276407    2.7619862   -2.3960044 
H     6.2197991    2.6749456   -1.4094298 
C     3.0603707    0.2932784   -2.5286921 
H     4.9044368    0.3585524   -1.3916637 
C     1.9543051    1.1638580   -3.1149230 
H     2.6291864   -0.4592043   -1.8344248 
H     3.5280416   -0.2870610   -3.3528872 
C     2.0433149    2.1256473   -4.0735169 
C     3.1303017    2.5621742   -4.8544152 
C     2.8948575    3.6483246   -5.6632580 
C     1.6837275    4.2721476   -5.6942951 
C     0.6583839    3.8222955   -4.9297844 
C     0.8627238    2.7538683   -4.1384324 
H     4.3217434    2.1183167   -5.1627773 
H     3.6939297    4.0183542   -6.3017584 
H     1.5361885    5.1335088   -6.3410854 
H    -0.3074452    4.3162224   -4.9439058 
N    -0.0800463    2.1909230   -3.2398182 
C     0.7089182    1.1809251   -2.6093696 
H    -1.0803562    2.4467259   -3.0749441 
H     0.3677462    0.5719648   -1.7735400 
