48
 energy: -9.070508888250 gnorm: 0.000635267627 xtb: 6.6.0 (2ccbbd7)
C           -2.04361853770833        3.10628783938058        2.30845409478411
C           -0.67766932969248        3.12199461435195        2.14088771334804
C           -2.81980803675925        2.08468772320447        1.75662091099376
C           -2.17157014883071        1.08583807687802        1.02887644720010
C           -0.81196548691603        1.11905727296787        0.87332383100349
C           -0.03751970379086        2.11935811603902        1.42420080203654
H           -0.09182682725057        3.91917449695775        2.56540534421143
H           -2.75657767157301        0.29522804245087        0.59487624641476
H           -0.16599724754480        0.27735500065111        0.25117501330976
H           -2.52935687149038        3.88546032588360        2.86802308414889
C            1.44798318481105        2.13696170699766        1.21675772409159
C            2.11319242791443        0.74716991136356        1.23942897721551
H            1.90774174560421        2.76421504140751        1.98676023525426
H            1.67677514290512        2.62480737251776        0.26375770617506
C            1.83783899878647       -0.02512365187669       -0.02697834196629
O           -4.19212546206998        2.03990841081296        1.91128798892616
H           -4.49598981198706        2.80917269904849        2.44005568698204
O            0.54589892628150       -0.40830152903463       -0.28713183727893
N            3.53888307422073        0.85641168189469        1.54394089808959
H            1.66188104728884        0.16225957220876        2.05708128792934
H            3.93675099718921        1.51490485436950        0.87829373956368
H            3.68078380775223        1.25783620722267        2.46175307521378
N            2.81709982732182       -0.37712095172320       -0.96322821317794
C            3.98460157406625        0.43347707721258       -1.32132935458805
H            2.48464026000079       -0.92326212749950       -1.75182212308104
C            3.62633485245474        1.90552768863644       -1.30492827200636
O            4.35381450770376        2.66296151698785       -0.69699828410764
O            2.49583153293259        2.25060809142491       -1.96548680678925
H            2.04183940615281        1.44250731220202       -2.30014701595993
C            4.58573145849065        0.02966974680939       -2.66742380185131
H            4.74266706389924        0.25929678218449       -0.54560498158281
C            5.89382919402243        0.69512034378960       -2.93451707594585
H            3.88217307592254        0.27754338700599       -3.46742359078773
H            4.71352524878981       -1.05651873376341       -2.70378348656885
C            7.18748128852614        0.09759532364827       -2.85709835078589
C            7.62473446260963       -1.20603498691357       -2.56483693275126
C            8.96840636540811       -1.46068752143255       -2.55760982680784
C            9.90232348501718       -0.44837761096544       -2.83288263366464
C            9.50016082760920        0.82811228663525       -3.11634173404703
C            8.12831360189472        1.11007927593173       -3.12935047470608
H            6.90751316365713       -1.97750053574016       -2.34823975508020
H            9.31936347431537       -2.45468747262183       -2.33470816570877
H           10.95385954358058       -0.68274946662926       -2.81672850174651
H           10.20783999428167        1.61077790961278       -3.32335147766299
N            7.42608895636403        2.28015549320854       -3.35899907631301
C            6.08433961039218        2.02287053754348       -3.22710606652935
H            7.85154772097932        3.19234597120285       -3.53432563772089
H            5.30249502815228        2.76214874246204       -3.30334039367251
