48
Energy =
C     5.2268482    6.5887387    1.5530182 
C     4.6029410    5.8742467    0.5822804 
C     4.4975973    7.2812387    2.4683820 
C     3.1468880    7.2546025    2.4054872 
C     2.5169234    6.5426021    1.4371780 
C     3.2425145    5.8496547    0.5177744 
H     5.2031077    5.3238558   -0.1409118 
H     2.5768089    7.8109273    3.1418097 
H     1.4298847    6.5328145    1.4064271 
H     6.3107514    6.6045512    1.5963905 
C     2.5415805    5.0410231   -0.5493058 
C     1.9725146    3.7059637    0.0022659 
H     3.2216296    4.8513319   -1.4143111 
H     1.7166605    5.6476237   -0.9898245 
C     1.1245214    3.0127075   -1.0701059 
O     5.1094495    8.0247545    3.4824359 
H     6.1231917    8.0036958    3.4568066 
O    -0.0272150    3.6860192   -1.4736062 
N     3.0436010    2.8640969    0.5704908 
H     1.2356208    3.9381990    0.8081233 
H     3.9390290    2.9880100    0.0411303 
H     3.2434390    3.1793396    1.5498155 
N     1.3447192    1.6753957   -1.5803994 
C     2.7128716    1.4105156   -2.1090600 
H     0.6599758    1.6124512   -2.3683962 
C     3.3781055    2.6265803   -2.7580698 
O     2.6290506    3.5182571   -3.5082271 
O     4.7219538    2.9237611   -2.5400589 
H     5.2260310    2.1265355   -2.1778429 
C     2.7063484    0.1904383   -3.0812718 
H     3.3203092    1.1848257   -1.2542686 
C     3.4213356   -1.1367182   -2.7703836 
H     3.0935115    0.5269690   -4.0717576 
H     1.6518615   -0.0821664   -3.3014824 
C     4.2173987   -1.6091815   -1.7584847 
C     4.6804376   -1.0578856   -0.5924818 
C     5.4774385   -1.8013640    0.2271072 
C     5.8135864   -3.0772817   -0.1038126 
C     5.3552337   -3.6228376   -1.2575061 
C     4.5671609   -2.8748388   -2.0569322 
H     4.4637770   -0.0687112   -0.2534502 
H     5.8477852   -1.3729554    1.1560532 
H     6.4494500   -3.6611883    0.5571483 
H     5.6137973   -4.6388618   -1.5364125 
N     4.0148352   -3.2965555   -3.2870529 
C     3.3004792   -2.1292534   -3.6775383 
H     4.1064169   -4.2163224   -3.7765834 
H     2.7351862   -2.0567649   -4.6054987 
