48
Energy =
C    -2.6126341    4.0802226   -2.9195963 
C    -1.5072259    3.8845516   -3.6821663 
C    -2.4925613    4.2860548   -1.5807257 
C    -1.2651475    4.2951178   -1.0138630 
C    -0.1563345    4.1026421   -1.7712694 
C    -0.2702331    3.8901975   -3.1120112 
H    -1.6223690    3.7232371   -4.7507736 
H    -1.1820462    4.4559649    0.0551213 
H     0.8210523    4.1079057   -1.2937433 
H    -3.5931545    4.0723356   -3.3833491 
C     0.9665837    3.6753666   -3.9600199 
C     1.3731559    2.1834061   -4.1384511 
H     1.8134631    4.2577078   -3.5289885 
H     0.8101114    4.1286169   -4.9625322 
C     1.7387590    1.4817617   -2.8361491 
O    -3.6116649    4.4934290   -0.7674071 
H    -4.4943961    4.4614874   -1.2654935 
O     0.7977165    1.3047654   -1.8256270 
N     0.3404962    1.4367259   -4.8833011 
H     2.3256093    2.1656774   -4.7278547 
H    -0.5178587    1.3264295   -4.2886802 
H     0.0667733    1.9528310   -5.7520746 
N     3.0539331    0.9342043   -2.6616464 
C     3.8394438    1.7422769   -1.7001936 
H     2.8937838   -0.0164676   -2.2557193 
C     3.9148445    3.2110324   -2.1190812 
O     4.1272265    3.5384643   -3.4523112 
O     3.6982067    4.2467297   -1.2141228 
H     3.6295791    3.9143085   -0.2646205 
C     5.2655827    1.1616767   -1.6018264 
H     3.3565645    1.6996346   -0.6958072 
C     5.2838649   -0.1993819   -0.9437734 
H     5.9260833    1.8489754   -1.0273736 
H     5.7007125    1.0962968   -2.6258609 
C     5.1883564   -0.4584373    0.3692930 
C     5.0856772    0.3958841    1.4194648 
C     4.9947983   -0.1295259    2.6751064 
C     5.0070278   -1.4848763    2.8592367 
C     5.1105399   -2.3230538    1.7886550 
C     5.2003649   -1.7788596    0.5569588 
H     5.0765564    1.4716682    1.2731150 
H     4.9118717    0.5322490    3.5340126 
H     4.9330931   -1.8964126    3.8628183 
H     5.1197528   -3.4001768    1.9166700 
N     5.3070445   -2.4669947   -0.6814568 
C     5.3526899   -1.3691354   -1.6026490 
H     5.3409778   -3.4953784   -0.8685144 
H     5.4149829   -1.4733814   -2.6838830 
