48
Energy =
C    -4.4550897    2.8727511   -1.7586327 
C    -3.2778153    3.0064488   -1.0973490 
C    -4.4645586    2.6642100   -3.1024021 
C    -3.2937963    2.5906931   -3.7755338 
C    -2.1133135    2.7231338   -3.1193157 
C    -2.0988110    2.9354042   -1.7750816 
H    -3.2872671    3.1669110   -0.0224562 
H    -3.3149223    2.4236456   -4.8467853 
H    -1.1822746    2.6591514   -3.6768736 
H    -5.3884135    2.9313122   -1.2094380 
C    -0.7823481    3.0648610   -1.0420032 
C    -0.1131343    1.6928106   -0.7806346 
H    -0.9093204    3.6071960   -0.0797368 
H    -0.0942215    3.6990721   -1.6465607 
C     1.3010248    1.8381897   -0.2442038 
O    -5.6603627    2.5204071   -3.8138843 
H    -6.4925884    2.5934607   -3.2390099 
O     1.7868267    2.9559588   -0.0132735 
N    -0.9251313    0.8805030    0.1392144 
H    -0.0048593    1.1533697   -1.7492831 
H    -1.1247493    1.4239661    1.0118384 
H    -1.8412262    0.6474073   -0.3097947 
N     2.1607332    0.6912594   -0.1710794 
C     3.5489207    0.9504904   -0.5880353 
H     1.7914566   -0.2427962    0.1196348 
C     3.8191578    2.4564381   -0.5893873 
O     5.0187222    2.9533056   -1.0906410 
O     2.9616893    3.2388233   -0.1500975 
H     2.4908905    3.0081680    0.7006246 
C     3.7761419    0.3344454   -1.9820854 
H     4.2481153    0.5032436    0.1513193 
C     3.7111617   -1.1744318   -1.9363637 
H     4.7642938    0.6478807   -2.3873875 
H     3.0078066    0.7263121   -2.6853929 
C     4.6890463   -2.0085151   -1.5512446 
C     5.9556528   -1.7358078   -1.1453138 
C     6.7620288   -2.7789783   -0.7953493 
C     6.2946388   -4.0632224   -0.8535468 
C     5.0173876   -4.3119184   -1.2613394 
C     4.2400569   -3.2632753   -1.6041000 
H     6.3261742   -0.7158724   -1.0951519 
H     7.7810815   -2.5880020   -0.4670184 
H     6.9428596   -4.8892765   -0.5715960 
H     4.6294095   -5.3237321   -1.3095062 
N     2.8882893   -3.3010263   -2.0400139 
C     2.6205758   -1.9047904   -2.2266434 
H     2.2605326   -4.1248638   -2.1845194 
H     1.6594338   -1.4970218   -2.5323711 
