48
Energy =
C    -2.2544005    2.4013843    1.5753448 
C    -0.9927656    2.5480808    1.0969730 
C    -3.3226815    2.7120018    0.7930986 
C    -3.1203108    3.1676904   -0.4640524 
C    -1.8610772    3.3162662   -0.9474063 
C    -0.7883981    3.0103757   -0.1674057 
H    -0.1495926    2.2919685    1.7326419 
H    -3.9799554    3.4112438   -1.0787176 
H    -1.7179000    3.6818336   -1.9613289 
H    -2.4069068    2.0340311    2.5843775 
C     0.6140941    3.1573077   -0.7144791 
C     1.0012405    1.9801343   -1.6411112 
H     1.3497496    3.2537986    0.1139224 
H     0.6735778    4.1115206   -1.2868940 
C     2.2954716    2.2670837   -2.3802025 
O    -4.6352976    2.5703702    1.2549790 
H    -4.7026493    2.2308971    2.2080847 
O     2.2639326    2.5056650   -3.7478663 
N     1.0896502    0.7191932   -0.8828658 
H     0.2289226    1.8770460   -2.4402157 
H     1.6723225    0.8615251   -0.0247434 
H     0.1310445    0.4412666   -0.5655547 
N     3.5582079    2.2737012   -1.6920844 
C     4.6668745    1.4726446   -2.2519286 
H     3.6415647    2.7670389   -0.7756793 
C     5.3583818    2.1926771   -3.4163568 
O     5.7256318    1.4848216   -4.5565420 
O     5.7465125    3.5280584   -3.3192479 
H     5.3367830    3.9682656   -2.5102831 
C     4.1691287    0.0506536   -2.6216674 
H     5.4500076    1.3834498   -1.4668091 
C     5.2938218   -0.9631912   -2.6417520 
H     3.6541362    0.0872561   -3.6112228 
H     3.4010741   -0.2838737   -1.8922011 
C     5.8282740   -1.5798103   -1.5761159 
C     5.5084508   -1.4748130   -0.2604856 
C     6.2181235   -2.2145754    0.6393367 
C     7.2260270   -3.0364962    0.2159825 
C     7.5309325   -3.1231172   -1.1101249 
C     6.8130952   -2.3829900   -1.9807298 
H     4.7118964   -0.8186372    0.0781351 
H     5.9831772   -2.1490524    1.6990914 
H     7.7887224   -3.6213370    0.9395396 
H     8.3302769   -3.7665752   -1.4622216 
N     6.9739194   -2.3182146   -3.3901193 
C     5.9549339   -1.3701996   -3.7410735 
H     7.6471555   -2.8297449   -4.0059968 
H     5.7701776   -1.0063727   -4.7530126 
