48
Energy =
C    -4.1244867    2.0479752   -1.4956578 
C    -2.8665188    2.5123887   -1.2884828 
C    -4.3323728    0.9757220   -2.3056151 
C    -3.2782791    0.3755197   -2.9033964 
C    -2.0179068    0.8350820   -2.6990993 
C    -1.8045278    1.9091533   -1.8908779 
H    -2.7164015    3.3671107   -0.6337221 
H    -3.4584891   -0.4776699   -3.5479122 
H    -1.1856867    0.3400431   -3.1893787 
H    -4.9628941    2.5356197   -1.0103673 
C    -0.3984086    2.4110196   -1.6481402 
C     0.3481876    1.5856542   -0.5745023 
H    -0.4030621    3.4840171   -1.3498329 
H     0.1703933    2.3782093   -2.6038867 
C     1.8166019    1.9656535   -0.5459628 
O    -5.6154975    0.4703812   -2.5395204 
H    -6.3510256    0.9773882   -2.0592422 
O     2.1522812    3.1546626   -0.4426182 
N    -0.2540202    1.7784184    0.7533591 
H     0.2979124    0.5047961   -0.8374217 
H    -0.2644894    2.7993330    0.9906907 
H    -1.2422862    1.4359250    0.7517298 
N     2.8346126    0.9824202   -0.7922107 
C     3.9595526    1.4710060   -1.6093195 
H     2.7246547   -0.0076778   -0.4753822 
C     3.9578693    2.9998849   -1.6375463 
O     4.8387013    3.6853153   -2.4682473 
O     3.1598391    3.6318666   -0.9283168 
H     3.0225387    3.3446154    0.0194559 
C     3.8570249    0.8837302   -3.0319944 
H     4.9200605    1.1678810   -1.1388169 
C     3.9638014   -0.6246714   -3.0251497 
H     4.6735732    1.2981521   -3.6666226 
H     2.9047077    1.2084574   -3.5034246 
C     2.9517635   -1.5069971   -2.9990071 
C     1.6104734   -1.2954699   -3.0035642 
C     0.7824903   -2.3780757   -2.9538182 
C     1.3019672   -3.6420638   -2.9021829 
C     2.6524518   -3.8305841   -2.8988483 
C     3.4502127   -2.7431035   -2.9489831 
H     1.1995120   -0.2931613   -3.0409265 
H    -0.2955958   -2.2368560   -2.9529193 
H     0.6361112   -4.5006150   -2.8612434 
H     3.0808947   -4.8261088   -2.8541268 
N     4.8705992   -2.7179970   -2.9381836 
C     5.1213065   -1.3071311   -2.9828770 
H     5.5474837   -3.5145483   -2.9045548 
H     6.1119163   -0.8575161   -2.9675498 
