48
Energy =
C     3.6782108    6.1176204    2.2370255 
C     3.7878166    4.8140167    1.8748590 
C     2.5636483    6.5573596    2.8799201 
C     1.5652197    5.6880595    3.1564328 
C     1.6686609    4.3835649    2.7966495 
C     2.7830054    3.9379739    2.1545271 
H     4.6891073    4.4776216    1.3617579 
H     0.6814242    6.0514770    3.6689774 
H     0.8530114    3.7026791    3.0248352 
H     4.4846564    6.8070969    2.0106277 
C     2.8995890    2.4897972    1.7344637 
C     2.5830028    2.2955348    0.2282228 
H     2.2331659    1.8438254    2.3486057 
H     3.9373902    2.1528623    1.9580167 
C     3.0410547    0.9273186   -0.2741690 
O     2.4185458    7.8940690    3.2656684 
H     3.2103187    8.4798577    3.0236020 
O     2.1190034    0.0209641   -0.7857610 
N     1.1456144    2.5118975   -0.0233101 
H     3.1610581    3.0287438   -0.3771522 
H     0.5733845    1.8532001    0.5572587 
H     0.8741743    3.4896575    0.2345982 
N     4.3767133    0.4574451   -0.0294507 
C     5.4971272    1.0091509   -0.8151659 
H     4.5217862   -0.2369769    0.7366758 
C     5.8474848    2.4281115   -0.3731598 
O     5.4346898    3.5222630   -1.1254651 
O     6.4808254    2.6711197    0.8435275 
H     6.7382170    1.8118128    1.3082056 
C     5.1974848    0.8884422   -2.3264920 
H     6.3967225    0.3887176   -0.6012520 
C     6.4460033    1.0848453   -3.1587686 
H     4.4228275    1.6280545   -2.6295225 
H     4.7654357   -0.1137608   -2.5411087 
C     7.3631584    0.1523787   -3.4597712 
C     7.4021681   -1.1659727   -3.1367208 
C     8.4650138   -1.9063848   -3.5640675 
C     9.4628393   -1.3242306   -4.2961657 
C     9.4042194    0.0026135   -4.6045245 
C     8.3411597    0.7130256   -4.1727096 
H     6.6132476   -1.6285862   -2.5509234 
H     8.5197693   -2.9644596   -3.3197397 
H    10.3075708   -1.9206719   -4.6313934 
H    10.1895367    0.4812071   -5.1795773 
N     8.0963339    2.0982172   -4.3695925 
C     6.8523275    2.2592974   -3.6730923 
H     8.6669936    2.8062410   -4.8858692 
H     6.3306574    3.2078771   -3.5501315 
