48
 energy: -9.363001016467 gnorm: 0.000590323717 xtb: 6.6.0 (2ccbbd7)
C            4.41952227973248        6.11823708686638        2.15484560904239
C            4.30947684191794        5.07095801135201        1.27174762383610
C            4.16134951856097        5.92970394943495        3.51296701405748
C            3.79357805220490        4.65522106910330        3.94380627599872
C            3.68838539979325        3.61416569135658        3.05332032824303
C            3.93525930121958        3.80643820529123        1.70189244357411
H            4.52212615597942        5.21999194964274        0.22673705266481
H            3.59799961927719        4.50869595885373        4.99112906496653
H            3.41062228284846        2.63783230412822        3.40643238894129
H            4.70997765058581        7.09330521140863        1.80665336974652
C            3.86791803000606        2.69085982685009        0.70735350432625
C            2.88989875407581        1.55305040436437        1.04010611238870
H            4.87416298708881        2.29236834783207        0.56200775954093
H            3.52515215416497        3.17554540947169       -0.35076254919610
C            2.21754726100191        0.99464729474179       -0.19779532337039
O            4.26291646717815        6.95843811210112        4.42955974738569
H            4.52770017155650        7.78810570539924        3.97703006508004
O            1.01002016971953        0.85410042524259       -0.17570862911661
N            3.49167929278933        0.48464626234732        1.83547426486276
H            2.07299656174280        1.97578546094256        1.64786217776576
H            3.94374439276381       -0.19696785522572        1.24083912227835
H            4.18948945596941        0.84452980549395        2.47484801295494
N            2.94113956068083        0.67047217010598       -1.32407910741991
C            4.40038394239599        0.71710901732033       -1.47830523370512
H            2.44440642057407        0.32942880152259       -2.14256379717620
C            4.88623090586544        2.12222554098236       -1.75453038590238
O            5.97137578486000        2.28512606817802       -2.26844708024836
O            4.02289486507270        3.21553493408200       -1.35593962210384
H            2.96811542321553        2.96090600267583       -1.28354593604669
C            4.84422523271903       -0.23343550187077       -2.59415458678084
H            4.85058479794591        0.38792392070408       -0.53369408995779
C            4.23501291484086        0.11572022488657       -3.90888571424573
H            4.58431959978490       -1.26378429799257       -2.33323131410323
H            5.93474477553162       -0.19814602463542       -2.68862724919502
C            3.16354317661090       -0.55384445389783       -4.57116219418801
C            2.40749775088196       -1.69598686867568       -4.25590261751254
C            1.41072411905056       -2.07805681804983       -5.11038323666123
C            1.13759965109273       -1.35120034049487       -6.28066751321424
C            1.85673045487075       -0.23348350810828       -6.60466403099585
C            2.88210304129367        0.17605259008968       -5.74306649961150
H            2.61400286459014       -2.24716423744806       -3.35568839072318
H            0.82090841646284       -2.95041818178045       -4.88244780721586
H            0.34440245993688       -1.68002943156842       -6.93154631413598
H            1.65009521577141        0.33231782315278       -7.49533099328651
N            3.74835121527655        1.25525423603709       -5.78103593674238
C            4.54623073196980        1.21703290187665       -4.66518961736963
H            3.74349128675136        1.98403275940165       -6.49693988194756
H            5.27228478130988        1.96422778162811       -4.38555832272903
