48
Energy =
C    -1.2348868    0.5338990   -7.7765816 
C    -0.7670902    0.0596104   -6.5941547 
C    -1.4426661    1.8674058   -7.9444850 
C    -1.1787675    2.7180187   -6.9267449 
C    -0.7113859    2.2494212   -5.7421412 
C    -0.5060817    0.9150702   -5.5673990 
H    -0.5989191   -1.0079422   -6.4782310 
H    -1.3445417    3.7795373   -7.0737794 
H    -0.5003713    2.9495284   -4.9376071 
H    -1.4401990   -0.1557280   -8.5880623 
C     0.0301789    0.3949825   -4.2518044 
C     1.5489905    0.6361536   -4.1025031 
H    -0.1868085   -0.6904703   -4.1344114 
H    -0.5118292    0.9027086   -3.4225850 
C     1.9984124    0.3291092   -2.6845244 
O    -1.9243312    2.3883812   -9.1501519 
H    -2.0947044    1.6871932   -9.8624988 
O     1.8291565   -0.9451681   -2.1492678 
N     2.3059014   -0.1686348   -5.0792504 
H     1.7700047    1.7186314   -4.2687224 
H     2.0404168   -1.1794887   -4.9882867 
H     2.0635338    0.1358826   -6.0517840 
N     2.5275998    1.3705217   -1.8500087 
C     4.0045535    1.5713484   -1.9156123 
H     2.2509542    1.1173408   -0.8727681 
C     4.3011417    3.0593335   -2.0891148 
O     4.5570159    3.5760058   -3.3551332 
O     4.3005848    3.9323273   -1.0029888 
H     3.9683361    3.4844681   -0.1629712 
C     4.7290931    0.7168093   -3.0020396 
H     4.4507272    1.2893201   -0.9333038 
C     6.2355150    0.8201803   -2.8859159 
H     4.4032818    1.0431654   -4.0177973 
H     4.4477447   -0.3560776   -2.9182329 
C     7.0231693    0.1144556   -2.0593376 
C     6.6989090   -0.8563059   -1.1665021 
C     7.6997275   -1.4190700   -0.4302556 
C     8.9934030   -1.0062144   -0.5930549 
C     9.2942782   -0.0273541   -1.4932053 
C     8.2872917    0.5119152   -2.2116781 
H     5.6717032   -1.1844659   -1.0323461 
H     7.4674525   -2.1994799    0.2908582 
H     9.7852137   -1.4585942   -0.0009388 
H    10.3144532    0.3149050   -1.6312057 
N     8.3817101    1.5439264   -3.1828652 
C     7.0061699    1.6892689   -3.5655350 
H     9.2265099    2.0548096   -3.5287830 
H     6.6360316    2.4274609   -4.2784667 
