48
Energy =
C     1.1435009   -2.1728509    3.8323584 
C     1.5166799   -1.0067721    3.2437811 
C    -0.1740772   -2.4757393    3.9731712 
C    -1.1100002   -1.6089648    3.5255175 
C    -0.7422854   -0.4433063    2.9360066 
C     0.5763436   -0.1344277    2.7880192 
H     2.5739510   -0.7744514    3.1382765 
H    -2.1580220   -1.8611753    3.6450447 
H    -1.5111696    0.2383416    2.5822258 
H     1.9006729   -2.8632302    4.1890401 
C     0.9841159    1.1659717    2.1187680 
C     1.2320090    1.0581097    0.5877710 
H     1.8958928    1.5760199    2.6093205 
H     0.1954093    1.9311238    2.2913369 
C     2.5860323    0.4742729    0.2079080 
O    -0.5917325   -3.6678933    4.5729553 
H     0.1686986   -4.2637075    4.8812685 
O     3.4975633    0.0492320    1.1714091 
N     0.1338989    0.3482048   -0.0905482 
H     1.2652933    2.0993342    0.1890781 
H     0.1023395   -0.6500249    0.2239942 
H    -0.7780641    0.7972032    0.1569172 
N     3.0080520    0.5082821   -1.1565967 
C     4.2457667    1.2582590   -1.4377086 
H     2.4712874   -0.0535279   -1.8514920 
C     4.0300669    2.7659080   -1.3676280 
O     2.7959266    3.3145337   -1.6925969 
O     5.0841141    3.6357110   -1.0865665 
H     5.9337190    3.1482594   -0.8448338 
C     4.8446068    0.8243293   -2.7963277 
H     4.9956072    1.0184532   -0.6484157 
C     3.8966810    1.0223530   -3.9663370 
H     5.1585871   -0.2376781   -2.7230960 
H     5.7754510    1.4017607   -2.9923166 
C     3.2072383    0.0720977   -4.6231853 
C     3.1634169   -1.2725338   -4.4263521 
C     2.3645345   -2.0220089   -5.2389431 
C     1.6281482   -1.4260479   -6.2244433 
C     1.6851304   -0.0762331   -6.4030505 
C     2.4834786    0.6441241   -5.5879494 
H     3.7369761   -1.7536649   -3.6409988 
H     2.3100220   -3.0991655   -5.0999744 
H     0.9915409   -2.0299893   -6.8662348 
H     1.1036625    0.4133761   -7.1769427 
N     2.6750068    2.0504425   -5.6031754 
C     3.6005549    2.2136482   -4.5190702 
H     2.2635118    2.7699278   -6.2414966 
H     3.9751655    3.1757537   -4.1671855 
