48
Energy =
C     0.5818544    5.6729082    1.7589479 
C     0.3993457    4.4379480    1.2274076 
C     1.8002451    6.0369244    2.2408871 
C     2.8290069    5.1604807    2.1872537 
C     2.6522007    3.9238283    1.6577232 
C     1.4338642    3.5536546    1.1764084 
H    -0.5797082    4.1660604    0.8419784 
H     3.7973096    5.4617712    2.5720719 
H     3.4944711    3.2368188    1.6203323 
H    -0.2487510    6.3691702    1.7959025 
C     1.2430866    2.1824091    0.5669582 
C     1.8748183    2.0765587   -0.8417970 
H     0.1625459    1.9169763    0.5139386 
H     1.7068603    1.4313206    1.2439647 
C     1.8280096    0.6415594   -1.3458576 
O     2.0212698    7.3032306    2.7927688 
H     1.2000774    7.8978172    2.8020833 
O     0.5970615    0.1212898   -1.7316020 
N     1.1942052    2.9765051   -1.7868186 
H     2.9449985    2.3703333   -0.7905134 
H     0.1680974    2.7644762   -1.8106106 
H     1.3163835    3.9715970   -1.4878656 
N     2.8403926   -0.3011711   -0.9671529 
C     4.2096196   -0.2291428   -1.5267976 
H     2.5822049   -1.0102541   -0.2446979 
C     5.1253167    0.7594084   -0.7997892 
O     6.3084201    1.1673916   -1.4019919 
O     4.8766404    1.1877979    0.5050049 
H     4.1330137    0.6645513    0.9395535 
C     4.2131223   -0.1125903   -3.0782706 
H     4.6878341   -1.2112107   -1.3139526 
C     3.7568361    1.2227374   -3.6500033 
H     3.6001729   -0.9412907   -3.4902538 
H     5.2461608   -0.3047025   -3.4465779 
C     2.6210367    1.4674093   -4.3322610 
C     1.5882184    0.6392139   -4.6414543 
C     0.5400110    1.1433401   -5.3528259 
C     0.5392907    2.4508728   -5.7497272 
C     1.5872282    3.2630491   -5.4365398 
C     2.6108652    2.7426169   -4.7277634 
H     1.5708578   -0.3971674   -4.3202072 
H    -0.3018603    0.5012121   -5.5994946 
H    -0.3006490    2.8441910   -6.3162622 
H     1.6036117    4.3023212   -5.7458520 
N     3.7902442    3.4141684   -4.3145844 
C     4.4829793    2.3582254   -3.6352760 
H     4.0755379    4.4078589   -4.4731302 
H     5.4843858    2.4581193   -3.2242472 
