48
Energy =
C    -0.6185507   -1.3804654    3.2134488 
C     0.5941936   -1.0798716    2.6802030 
C    -1.2027026   -0.5337371    4.1017594 
C    -0.5693837    0.6082822    4.4511883 
C     0.6413725    0.9139149    3.9198247 
C     1.2319752    0.0716121    3.0263931 
H     1.0513120   -1.7643391    1.9692896 
H    -1.0456217    1.2750049    5.1618787 
H     1.1319330    1.8374544    4.2152333 
H    -1.1214143   -2.2980313    2.9264959 
C     2.5838769    0.4198172    2.4283127 
C     2.5270873    1.1850243    1.0736357 
H     3.1891300   -0.5066330    2.3044262 
H     3.1522415    1.0401853    3.1565526 
C     2.4104211    0.2815442   -0.1461055 
O    -2.4495441   -0.8133255    4.6695036 
H    -2.8637068   -1.6822672    4.3504638 
O     1.7568235   -0.9421099   -0.0849333 
N     1.4852189    2.2251268    1.0690646 
H     3.5140354    1.6889906    0.9438024 
H     0.5377453    1.7782173    1.1037815 
H     1.5883059    2.8369991    1.9111171 
N     2.7737400    0.7774206   -1.4334692 
C     4.2088326    0.8153286   -1.7681309 
H     2.0085570    1.0750211   -2.0774708 
C     4.6846027    2.2499146   -1.9430039 
O     5.6265652    2.7601601   -1.0585124 
O     4.2092776    3.0705631   -2.9657322 
H     3.4984834    2.6106436   -3.5125311 
C     4.4601189   -0.0392870   -3.0284889 
H     4.8253758    0.4015807   -0.9335001 
C     4.5261624   -1.5120841   -2.6840687 
H     5.4018487    0.2748173   -3.5289470 
H     3.6507410    0.1241235   -3.7735157 
C     5.6330375   -2.2535579   -2.5074081 
C     6.9433489   -1.9066712   -2.6063851 
C     7.8872176   -2.8602530   -2.3606972 
C     7.5138627   -4.1302548   -2.0185087 
C     6.1937418   -4.4540488   -1.9171927 
C     5.2785412   -3.4948047   -2.1684628 
H     7.2479511   -0.8977458   -2.8661589 
H     8.9424439   -2.6074048   -2.4332513 
H     8.2724224   -4.8835915   -1.8213028 
H     5.8800290   -5.4542395   -1.6385997 
N     3.8661274   -3.6187183   -2.0950148 
C     3.4556086   -2.2850806   -2.4304209 
H     3.2818688   -4.4550896   -1.8655614 
H     2.4251133   -1.9295431   -2.4095258 
