48
 energy: -9.277896173463 gnorm: 0.000670108276 xtb: 6.6.0 (2ccbbd7)
C            1.21005870288073        2.84829644198595        5.38836554956765
C            1.03376006981032        2.25860640430849        4.15894746408108
C            1.54126877238896        4.20019184705988        5.48632694856186
C            1.68789709183560        4.93161257698283        4.30796768769869
C            1.50915282835413        4.33518239188287        3.08274148174750
C            1.17408887716480        2.99177141158799        2.98995544471560
H            0.78469701775896        1.21328057756802        4.09304830186642
H            1.94506461648358        5.97312979049017        4.38343093952296
H            1.63173459156904        4.91012785688230        2.18064788368768
H            1.09671477953273        2.27082277174889        6.28834460380488
C            1.02176942586587        2.33066767051673        1.65654822365480
C            2.24715199926559        1.50801222895347        1.25080304540476
H            0.83819899847210        3.08627012292978        0.88659218627070
H            0.13413275808320        1.68904201462478        1.65814896624602
C            1.96568791972764        0.82749030197842       -0.07372772576838
O            1.72890257164976        4.82287773500747        6.70543622329470
H            1.59563323392768        4.18103976893086        7.43593236201341
O            1.11431143840183       -0.04240480005086       -0.09434491831842
N            3.44805147197779        2.32299800747719        1.20677236379427
H            2.41452673044652        0.71777467009660        1.99869694981331
H            3.39505729783253        2.91537677287775        0.37926833574589
H            3.51003409649127        2.92271138499614        2.01705942184783
N            2.60973383921020        1.21820551221396       -1.24852452516056
C            4.06939540018934        1.39643211101180       -1.37999711031644
H            2.21449568313611        0.87928278065191       -2.12399064947159
C            4.40291523789614        2.86851438689422       -1.58057188238222
O            3.51613669852282        3.68247029829128       -1.42642372574452
O            5.69134988000869        3.19029953190631       -1.86755049505583
H            6.27986630420832        2.40477001161207       -1.84342687515247
C            4.60693594208834        0.51539654219087       -2.51269684531161
H            4.51996719563646        1.06689238555503       -0.43407852679071
C            4.48555669399564       -0.95244603947140       -2.25639379489128
H            5.65766909405091        0.74701204511739       -2.70299367686497
H            4.07998381857595        0.76676178538154       -3.43774077114414
C            5.38846866389883       -1.95054873561822       -2.73249403906189
C            6.57967615262643       -1.88555743600171       -3.47634928499535
C            7.22627769476582       -3.05104768058119       -3.78228265190408
C            6.71965888290043       -4.29412138032535       -3.36966796414081
C            5.56152925413004       -4.38220107401813       -2.64707848301917
C            4.88502179917645       -3.19998349226002       -2.32141038249983
H            6.96432889468258       -0.93296929202568       -3.79438190582166
H            8.14069195624188       -3.01734585247065       -4.35107331482191
H            7.25355720995434       -5.19328904394488       -3.62923325204267
H            5.16472455671876       -5.32956288502090       -2.32891452092936
N            3.71410968888182       -2.96556767026448       -1.62416877853614
C            3.47988944460325       -1.61522823757659       -1.59497548052278
H            3.12232044656720       -3.68990025143962       -1.21306036679608
H            2.62710717739648       -1.16508966442496       -1.11390040139317
