48
Energy =
C     2.5364650   -4.1456402    1.9282854 
C     2.8551309   -3.2152782    0.9929738 
C     3.3048492   -4.2873373    3.0413641 
C     4.3874940   -3.4949869    3.2111236 
C     4.7108911   -2.5629842    2.2793059 
C     3.9478441   -2.4204576    1.1612349 
H     2.2278668   -3.1120072    0.1115246 
H     4.9907291   -3.6161467    4.1041884 
H     5.5828904   -1.9330149    2.4359831 
H     1.6648707   -4.7750550    1.7845353 
C     4.2980734   -1.3689347    0.1323316 
C     3.8547165    0.0450952    0.5731502 
H     3.8458756   -1.6181775   -0.8533861 
H     5.4008346   -1.3796162   -0.0220884 
C     4.3770631    1.1134756   -0.3744179 
O     3.0041288   -5.2357419    4.0244242 
H     2.1787260   -5.7898781    3.8240906 
O     5.3238021    2.0258373    0.0798279 
N     2.3889046    0.1196714    0.7016618 
H     4.3183773    0.2781895    1.5616833 
H     1.9228865   -0.3437214   -0.1130959 
H     2.0908729   -0.4003477    1.5607973 
N     3.8274063    1.2710673   -1.6907168 
C     4.7707817    1.3502617   -2.8221608 
H     2.7897171    1.2356408   -1.8146688 
C     4.1414810    2.0928684   -4.0017350 
O     2.8416938    1.7819967   -4.3896672 
O     4.8616753    3.0152741   -4.7622221 
H     5.8060519    3.1310489   -4.4261589 
C     5.2024177   -0.0749405   -3.2208358 
H     5.6693451    1.9297002   -2.5078193 
C     6.2690855   -0.0586803   -4.2944804 
H     4.3183044   -0.6634636   -3.5511614 
H     5.6187276   -0.5936817   -2.3328766 
C     6.0867294   -0.1226790   -5.6238901 
C     4.9415521   -0.2431104   -6.3442098 
C     5.0314047   -0.2724647   -7.7047204 
C     6.2497514   -0.1823677   -8.3190615 
C     7.3861053   -0.0596545   -7.5760392 
C     7.2714755   -0.0331951   -6.2315538 
H     3.9700751   -0.3016338   -5.8624896 
H     4.1273543   -0.3587595   -8.3030731 
H     6.3115783   -0.2009208   -9.4043441 
H     8.3596212    0.0207337   -8.0475124 
N     8.3209168    0.1040691   -5.2837797 
C     7.5843125    0.0852593   -4.0547188 
H     9.3510243    0.1929200   -5.4408660 
H     8.0309729    0.1916591   -3.0688593 
