48
Energy =
C     6.0275352   -2.5141166    0.8945169 
C     4.8880701   -1.9512992    1.3685690 
C     7.2050651   -1.8378918    0.9644435 
C     7.2337023   -0.6005683    1.5093895 
C     6.0984924   -0.0352778    1.9921282 
C     4.9192599   -0.7121617    1.9323801 
H     3.9497097   -2.4959959    1.2829812 
H     8.1782616   -0.0693499    1.5558327 
H     6.1404729    0.9624269    2.4220039 
H     5.9917116   -3.5032241    0.4523517 
C     3.6480665   -0.0695507    2.4403684 
C     3.0463742    0.8975110    1.3978602 
H     3.8697663    0.4811422    3.3808351 
H     2.8977001   -0.8494672    2.7050476 
C     2.6502951    0.1728774    0.1217338 
O     8.3965976   -2.3883923    0.4818407 
H     8.2964707   -3.3377571    0.1403101 
O     1.7194997   -0.8598916    0.1713698 
N     1.8912783    1.5996566    1.9758679 
H     3.8152734    1.6548880    1.1147229 
H     1.1608420    0.9047394    2.2652204 
H     2.1852952    2.1303266    2.8288569 
N     2.9988358    0.7225535   -1.1509431 
C     4.3805378    0.5297764   -1.6285743 
H     2.2529139    1.1918315   -1.7129815 
C     5.0659472    1.8743569   -1.8425722 
O     4.3645120    2.9178849   -2.4345087 
O     6.4086162    2.0699618   -1.5134400 
H     6.8423509    1.2313575   -1.1569450 
C     4.3514774   -0.2884615   -2.9342787 
H     4.9832136   -0.0225497   -0.8727718 
C     4.1989495   -1.7668812   -2.6542351 
H     5.2761572   -0.1156938   -3.5268197 
H     3.5133542    0.0560825   -3.5807603 
C     5.1827591   -2.6771077   -2.5656586 
C     6.5253999   -2.5294244   -2.7107012 
C     7.3175764   -3.6311535   -2.5736044 
C     6.7645695   -4.8489481   -2.2883698 
C     5.4151668   -4.9716782   -2.1373953 
C     4.6523022   -3.8679501   -2.2821731 
H     6.9715805   -1.5635782   -2.9254798 
H     8.3954803   -3.5373450   -2.6870815 
H     7.4027249   -5.7226536   -2.1809367 
H     4.9589025   -5.9285687   -1.9075155 
N     3.2415063   -3.7779041   -2.1524029 
C     3.0306892   -2.3815164   -2.4023233 
H     2.5415858   -4.5241212   -1.9355344 
H     2.0619522   -1.8864009   -2.3569499 
