48
Energy =
C     0.2401013   -1.7966569    2.2418951 
C     1.3144925   -1.0812230    1.8210523 
C    -0.4478993   -1.4071166    3.3474301 
C    -0.0583458   -0.3013884    4.0213759 
C     1.0122853    0.4195704    3.6011895 
C     1.7081111    0.0326227    2.4962638 
H     1.8439193   -1.3870714    0.9224735 
H    -0.6176380    0.0004724    4.9002041 
H     1.3044461    1.3072602    4.1555986 
H    -0.0726469   -2.6749683    1.6874582 
C     2.9062168    0.8350121    2.0248238 
C     2.6052446    1.8036307    0.8480729 
H     3.7239650    0.1366811    1.7429351 
H     3.3148406    1.4299802    2.8719742 
C     2.4353804    1.0824827   -0.4839911 
O    -1.5560729   -2.1231678    3.8107289 
H    -1.8007442   -2.9225000    3.2370484 
O     1.3049286    0.3169022   -0.7382557 
N     1.4521507    2.6690672    1.1478221 
H     3.4976571    2.4605469    0.7162311 
H     0.5705152    2.0998539    1.1192874 
H     1.5398250    3.0697392    2.1101985 
N     3.3762996    1.2669387   -1.5444970 
C     4.7425235    0.7453441   -1.3554399 
H     3.0658096    1.8110183   -2.3798157 
C     5.7815950    1.7956758   -1.7188004 
O     6.6402071    2.2609803   -0.7313735 
O     5.9012078    2.3096624   -3.0098834 
H     5.2234241    1.9099541   -3.6397656 
C     4.9233874   -0.5507915   -2.1710750 
H     4.9350760    0.5119414   -0.2842549 
C     4.1324494   -1.6942689   -1.5725011 
H     5.9997846   -0.8380495   -2.1831912 
H     4.6322902   -0.3879888   -3.2300971 
C     2.9281330   -2.1456250   -1.9615498 
C     2.1174793   -1.7215749   -2.9645819 
C     0.9207564   -2.3517149   -3.1419573 
C     0.5557971   -3.3851816   -2.3243773 
C     1.3840013   -3.7927938   -1.3217068 
C     2.5625714   -3.1539789   -1.1667932 
H     2.3922518   -0.8859895   -3.5994668 
H     0.2481547   -2.0204216   -3.9293695 
H    -0.4027522   -3.8771380   -2.4697310 
H     1.1063431   -4.6066772   -0.6606659 
N     3.5488615   -3.4052808   -0.1749651 
C     4.5295269   -2.4139840   -0.5076394 
H     3.5485581   -4.1087945    0.5998196 
H     5.4661348   -2.2712423    0.0275177 
