48
Energy =
C     1.8559495    5.6654843   -6.6562400 
C     2.0902771    4.5587757   -5.9071354 
C     2.8403840    6.5840945   -6.8450147 
C     4.0544719    6.3882203   -6.2821671 
C     4.2949674    5.2836833   -5.5313432 
C     3.3127371    4.3594028   -5.3407865 
H     1.2927896    3.8338159   -5.7647943 
H     4.8316283    7.1284644   -6.4406814 
H     5.2785206    5.1493732   -5.0866465 
H     0.8790795    5.8143324   -7.1034510 
C     3.5681659    3.1319024   -4.4919951 
C     2.8925411    3.2211157   -3.0911893 
H     4.6658494    2.9657012   -4.3802334 
H     3.1847481    2.2612994   -5.0617203 
C     3.1011771    1.9979330   -2.1853479 
O     2.6311697    7.7360568   -7.6096465 
H     1.6985871    7.8101286   -8.0015475 
O     2.9602494    2.1542637   -0.8103610 
N     3.3556620    4.4332431   -2.3942291 
H     1.7868004    3.2826286   -3.2209735 
H     4.4034145    4.4441895   -2.3368034 
H     3.0369241    5.2976882   -2.8893452 
N     3.3969959    0.6733071   -2.6720805 
C     4.7602622    0.2608273   -2.2706881 
H     3.2900446    0.6033590   -3.7051496 
C     5.8206661    1.2023923   -2.8318573 
O     6.2726047    1.0418902   -4.1335317 
O     6.2265922    2.3387418   -2.1343877 
H     5.8161980    2.3811498   -1.2103555 
C     5.0090560   -1.1947339   -2.7279940 
H     4.8593101    0.2892246   -1.1600280 
C     4.1470295   -2.2393033   -2.0367753 
H     6.0777187   -1.4497600   -2.5473822 
H     4.8419850   -1.2677537   -3.8255185 
C     4.2276984   -3.5626150   -2.2475997 
C     5.0462567   -4.2581010   -3.0786796 
C     4.9325934   -5.6170838   -3.1134105 
C     4.0124055   -6.2532742   -2.3264771 
C     3.2000905   -5.5337130   -1.5008598 
C     3.3325817   -4.1907072   -1.4847456 
H     5.7745092   -3.7513388   -3.7059725 
H     5.5762010   -6.1966303   -3.7710078 
H     3.9270464   -7.3365409   -2.3597605 
H     2.4638697   -6.0212707   -0.8710317 
N     2.5908436   -3.2645323   -0.7067918 
C     3.1758382   -2.0235360   -1.1244031 
H     1.8261898   -3.4353474   -0.0146452 
H     2.8572046   -1.0524873   -0.7525820 
