48
Energy =
C     3.7097193    1.1300063    4.4551556 
C     3.0036983    0.3208659    3.6255701 
C     4.8815467    1.6799432    4.0388762 
C     5.3366383    1.4191622    2.7923949 
C     4.6349128    0.6102230    1.9592598 
C     3.4645633    0.0514694    2.3726204 
H     2.0658163   -0.1070082    3.9688944 
H     6.2687307    1.8701038    2.4695701 
H     5.0151020    0.4182141    0.9611670 
H     3.3342508    1.3376909    5.4512286 
C     2.6660525   -0.8345976    1.4400023 
C     1.4773804   -0.0813983    0.8033439 
H     2.2898349   -1.7120282    2.0104425 
H     3.3216019   -1.2450107    0.6434016 
C     1.9281422    1.0842290   -0.0680106 
O     5.6374116    2.5119093    4.8710773 
H     5.2166717    2.6843505    5.7776034 
O     2.0089400    2.3511636    0.4973949 
N     0.6197097   -1.0263547    0.0659388 
H     0.8728981    0.3890494    1.6158967 
H     1.2086734   -1.6796235   -0.5020296 
H     0.0982662   -1.6218439    0.7519438 
N     2.1451312    0.9409905   -1.4793011 
C     3.4661378    1.3417575   -1.9984535 
H     1.4610897    0.3834228   -2.0341987 
C     3.3647688    2.6856592   -2.7168265 
O     3.1130154    2.7209374   -4.0851363 
O     3.5098234    3.8932079   -2.0358710 
H     3.5076321    3.7598161   -1.0336807 
C     4.0227657    0.2516308   -2.9438203 
H     4.1950967    1.4821579   -1.1675896 
C     4.2604589   -1.0602928   -2.2338855 
H     4.9924468    0.5978614   -3.3690250 
H     3.3463774    0.1204401   -3.8159277 
C     3.4966532   -2.1643574   -2.2832902 
C     2.3500704   -2.4060124   -2.9706405 
C     1.7563146   -3.6265716   -2.8333265 
C     2.3116548   -4.5774640   -2.0226626 
C     3.4660170   -4.3149945   -1.3469382 
C     4.0351961   -3.1013997   -1.5005571 
H     1.9050382   -1.6557672   -3.6156969 
H     0.8383230   -3.8457403   -3.3741161 
H     1.8346397   -5.5494987   -1.9208196 
H     3.9231004   -5.0594439   -0.7033292 
N     5.2255965   -2.6289699   -0.8867076 
C     5.3006981   -1.2998929   -1.4177973 
H     5.8673336   -3.1160809   -0.2188056 
H     6.0947922   -0.5905064   -1.1922798 
