48
Energy =
C     0.0189785    0.8165215   -5.1548273 
C     0.6546067    0.3368342   -4.0560381 
C    -1.2915986    0.5244235   -5.3678293 
C    -1.9571647   -0.2440171   -4.4763879 
C    -1.3268377   -0.7219138   -3.3735084 
C    -0.0131595   -0.4346112   -3.1564586 
H     1.6972481    0.5901915   -3.8935849 
H    -3.0023545   -0.4680472   -4.6561316 
H    -1.8825447   -1.3322834   -2.6677738 
H     0.5616932    1.4396630   -5.8575268 
C     0.6907702   -0.9575612   -1.9194155 
C     0.8110127    0.0797889   -0.7718150 
H     1.7051623   -1.3181128   -2.1996324 
H     0.1547073   -1.8522856   -1.5342865 
C     1.9162834    1.0974325   -1.0157650 
O    -1.9766585    0.9998194   -6.4915636 
H    -1.4107406    1.5882421   -7.0931231 
O     1.7118610    2.1071900   -1.7058872 
N    -0.4790467    0.7276502   -0.4851277 
H     1.1214888   -0.4714653    0.1435677 
H    -0.7237037    1.3676086   -1.2799669 
H    -1.2324512    0.0052661   -0.4280423 
N     3.2656103    0.8056726   -0.6113130 
C     4.2906614    1.2137572   -1.5870418 
H     3.4763085    0.3032108    0.2802272 
C     3.6928612    2.2130146   -2.5845438 
O     4.4127378    2.6169146   -3.7045182 
O     2.5436808    2.6448805   -2.4114945 
H     2.2597221    2.9201193   -1.4931975 
C     4.8322524   -0.0585056   -2.2735975 
H     5.1060236    1.7489118   -1.0527140 
C     6.1930000    0.1667425   -2.8965447 
H     4.1074666   -0.4092250   -3.0419423 
H     4.9106054   -0.8827494   -1.5317172 
C     7.3773462    0.1240419   -2.2666011 
C     7.6606101   -0.1351516   -0.9640233 
C     8.9653239   -0.1085716   -0.5672621 
C     9.9553198    0.1762939   -1.4668526 
C     9.6463441    0.4375110   -2.7688803 
C     8.3486335    0.4026075   -3.1374498 
H     6.8750687   -0.3545161   -0.2468592 
H     9.2193698   -0.3118333    0.4703276 
H    10.9926577    0.1984000   -1.1421907 
H    10.4187725    0.6710932   -3.4938180 
N     7.8155808    0.6564974   -4.4291356 
C     6.4108562    0.4912897   -4.1833698 
H     8.3134934    0.8905729   -5.3186452 
H     5.6270983    0.6608142   -4.9215032 
