48
Energy =
C    -0.2217146    3.1787079   -0.0951224 
C     0.2934204    3.2858167   -1.3460172 
C    -1.4377442    2.6010857    0.0968645 
C    -2.1294856    2.1316805   -0.9654754 
C    -1.6211179    2.2369585   -2.2182076 
C    -0.4049429    2.8162723   -2.4180627 
H     1.2713866    3.7429976   -1.4780669 
H    -3.0943344    1.6667121   -0.8000382 
H    -2.1914214    1.8479019   -3.0568682 
H     0.3430462    3.5536298    0.7514351 
C     0.1737952    2.9251532   -3.8142291 
C     0.7415026    1.5881986   -4.3586836 
H     0.9610244    3.7136145   -3.8378261 
H    -0.6164780    3.2942757   -4.5022597 
C     1.7422832    0.9310816   -3.4094471 
O    -1.9998420    2.4811903    1.3724341 
H    -1.4083270    2.8347720    2.1162970 
O     1.3438469    0.4065716   -2.1855628 
N    -0.3775563    0.6879937   -4.7015784 
H     1.3358379    1.8221312   -5.2789376 
H    -0.8710329    1.0465932   -5.5532843 
H    -0.0116055   -0.2632977   -4.9474714 
N     3.1218966    0.8310957   -3.7811795 
C     4.0363635    1.8210621   -3.1841223 
H     3.4212059    0.0677276   -4.4280968 
C     3.6615565    3.2397404   -3.6044395 
O     3.1822439    3.4756886   -4.8883362 
O     3.7263476    4.3112402   -2.7188282 
H     4.1974075    4.0619293   -1.8616897 
C     5.4822410    1.4711317   -3.5884191 
H     3.9470734    1.7589168   -2.0746997 
C     6.4950989    2.3180458   -2.8492719 
H     5.6070344    1.5861557   -4.6881750 
H     5.6777835    0.4002943   -3.3573060 
C     7.0136464    3.4927464   -3.2439566 
C     6.7984303    4.2049490   -4.3801305 
C     7.4509414    5.3924503   -4.5340512 
C     8.2988961    5.8463276   -3.5620386 
C     8.4969593    5.1163974   -2.4278357 
C     7.8400514    3.9444568   -2.2987250 
H     6.1140523    3.8560211   -5.1485538 
H     7.2878885    5.9840972   -5.4316024 
H     8.8113729    6.7961396   -3.6913799 
H     9.1605444    5.4655874   -1.6442378 
N     7.8923963    3.0481517   -1.1974009 
C     6.9879477    2.0255233   -1.6329247 
H     8.4406939    3.1187218   -0.3097760 
H     6.7314440    1.1441965   -1.0500619 
