48
Energy =
C     0.0748272    6.7477607    1.9006194 
C     0.0903791    5.6994354    1.0388170 
C     0.8370474    6.7189756    3.0265035 
C     1.6116212    5.6401269    3.2815147 
C     1.6306368    4.5885946    2.4238830 
C     0.8664000    4.6109064    1.2977609 
H    -0.5225490    5.7405890    0.1420463 
H     2.2176959    5.6306827    4.1809589 
H     2.2629574    3.7323306    2.6455170 
H    -0.5481900    7.6096259    1.6869872 
C     0.9015940    3.4465775    0.3335436 
C     2.1953799    3.4288544   -0.5153276 
H     0.0124571    3.4574320   -0.3380623 
H     0.8250581    2.5018491    0.9175840 
C     2.2693885    2.1650150   -1.3528178 
O     0.8434762    7.7824448    3.9349117 
H     0.2390977    8.5531788    3.6721335 
O     1.3453341    1.9892191   -2.3758166 
N     2.2725613    4.6173026   -1.3792005 
H     3.0813429    3.4168396    0.1621177 
H     1.3991171    4.7035349   -1.9513614 
H     2.3667212    5.4800637   -0.7940024 
N     2.9118909    0.9982085   -0.8226634 
C     4.3552565    0.7948737   -1.0719716 
H     2.3718275    0.3835344   -0.1735519 
C     5.1792741    2.0832729   -1.0149494 
O     5.8395020    2.4037951    0.1639886 
O     5.2441991    2.9837398   -2.0776885 
H     4.6447834    2.7112865   -2.8420706 
C     4.5449256    0.0086137   -2.3883675 
H     4.7683570    0.1779722   -0.2402778 
C     4.1680741   -1.4471010   -2.2154554 
H     5.6088687    0.0604135   -2.7140697 
H     3.9418954    0.4633778   -3.2039707 
C     2.9671336   -2.0087719   -2.4310597 
C     1.8134823   -1.4563657   -2.8856027 
C     0.7153418   -2.2555012   -3.0097732 
C     0.7852884   -3.5811393   -2.6818218 
C     1.9543412   -4.1151202   -2.2271527 
C     3.0268672   -3.3035787   -2.1137257 
H     1.7550182   -0.4049085   -3.1466581 
H    -0.2196933   -1.8339918   -3.3713192 
H    -0.0943492   -4.2115816   -2.7835421 
H     2.0269232   -5.1640140   -1.9608669 
N     4.3239722   -3.6557528   -1.6539706 
C     4.9989441   -2.3946733   -1.7457118 
H     4.6844516   -4.5834279   -1.3329534 
H     6.0350551   -2.2300065   -1.4583602 
