48
Energy =
C    -1.0979940   -1.4719014   -0.3242065 
C     0.1113671   -1.9579681    0.0561335 
C    -1.6085736   -0.3628482    0.2742132 
C    -0.9024757    0.2560112    1.2470993 
C     0.3087201   -0.2223393    1.6279754 
C     0.8207997   -1.3384273    1.0388385 
H     0.5116304   -2.8340868   -0.4486496 
H    -1.3155683    1.1459227    1.7098961 
H     0.8702626    0.3044236    2.3963712 
H    -1.6510525   -1.9663464   -1.1164256 
C     2.1929186   -1.8467958    1.4279148 
C     3.2731092   -1.4375025    0.3972270 
H     2.1582335   -2.9548465    1.5239646 
H     2.4782952   -1.4586131    2.4342940 
C     3.3276078    0.0611474    0.2000366 
O    -2.8505947    0.1625979   -0.0939128 
H    -3.3047459   -0.3422111   -0.8474832 
O     3.6151445    0.8794120    1.2834754 
N     4.5862148   -1.9678116    0.8146062 
H     3.0098056   -1.8310676   -0.6118274 
H     4.8909815   -1.5108436    1.7117554 
H     4.5332286   -2.9993814    0.9942995 
N     2.6977574    0.6449200   -0.9445153 
C     3.5573377    0.9980039   -2.0919722 
H     1.6562534    0.7501703   -0.9589219 
C     3.6794580    2.5147601   -2.2540752 
O     3.8192727    3.0599539   -3.5248091 
O     3.7693115    3.3741329   -1.1607946 
H     3.6949266    2.8796222   -0.2832475 
C     2.9789748    0.3347300   -3.3666819 
H     4.6063698    0.6514344   -1.9370632 
C     3.0680387   -1.1737464   -3.3179583 
H     3.5151011    0.6893159   -4.2757831 
H     1.9147411    0.6390556   -3.4972747 
C     4.1703896   -1.9160155   -3.4977419 
C     5.4343908   -1.5343948   -3.8133258 
C     6.3939266   -2.4980081   -3.9189851 
C     6.0794949   -3.8123365   -3.7078545 
C     4.8031796   -4.1711118   -3.3896768 
C     3.8719738   -3.1996351   -3.2923631 
H     5.6855904   -0.4911169   -3.9834934 
H     7.4141758   -2.2196715   -4.1730833 
H     6.8501699   -4.5743123   -3.7945632 
H     4.5374695   -5.2088663   -3.2186586 
N     2.5005969   -3.3546220   -2.9601302 
C     2.0538615   -2.0002104   -3.0023484 
H     1.9579653   -4.2078429   -2.7018101 
H     1.0639749   -1.7013364   -2.6937874 
