48
Energy =
C    -1.9121546   -0.0585475   -5.7334211 
C    -1.8221919    0.5018263   -4.5008682 
C    -0.8588380    0.0047878   -6.5909964 
C     0.2780411    0.6286659   -6.2079795 
C     0.3730719    1.1908538   -4.9767759 
C    -0.6785942    1.1327051   -4.1144061 
H    -2.6694918    0.4400217   -3.8234667 
H     1.1122347    0.6703546   -6.8994428 
H     1.2969222    1.6822990   -4.6884712 
H    -2.8274531   -0.5589255   -6.0301499 
C    -0.5746769    1.7398163   -2.7307516 
C    -0.3577311    0.6682865   -1.6369321 
H    -1.5108720    2.3009440   -2.5188007 
H     0.2434426    2.4943427   -2.6892433 
C     0.9789542   -0.0505403   -1.7861534 
O    -0.9190552   -0.5604530   -7.8690968 
H    -1.8001935   -1.0175678   -8.0761232 
O     1.0933463   -1.0630655   -2.7344173 
N    -0.5146999    1.2824720   -0.3067196 
H    -1.1264413   -0.1317895   -1.7469828 
H     0.1113417    2.1192567   -0.2237051 
H    -1.4974890    1.6247373   -0.1896763 
N     2.0129312    0.0851939   -0.7960321 
C     3.2289790    0.7677873   -1.2980411 
H     2.2334530   -0.8796038   -0.4629874 
C     2.9389343    2.2099015   -1.7125973 
O     3.0366470    2.5877812   -3.0471832 
O     2.5605590    3.1705943   -0.7756869 
H     2.4958166    2.7745307    0.1523418 
C     3.9602517   -0.0338759   -2.4108444 
H     3.9329375    0.8580747   -0.4420818 
C     4.4877910   -1.3624981   -1.9148039 
H     4.8192492    0.5613325   -2.7916776 
H     3.2932730   -0.1850787   -3.2890600 
C     5.5752773   -1.5574946   -1.1517580 
C     6.4680589   -0.6587904   -0.6617667 
C     7.5006079   -1.1210652    0.1000783 
C     7.6247529   -2.4585458    0.3570456 
C     6.7173077   -3.3423623   -0.1470270 
C     5.7048436   -2.8606439   -0.8978386 
H     6.3739990    0.4037262   -0.8665187 
H     8.2294927   -0.4225374    0.5046326 
H     8.4507845   -2.8193051    0.9651675 
H     6.8017158   -4.4065206    0.0469336 
N     4.6617999   -3.6040468   -1.5111845 
C     3.9168457   -2.5581964   -2.1495398 
H     4.4840768   -4.6351238   -1.5007674 
H     3.0137921   -2.7194705   -2.7354439 
