48
Energy =
C    -1.2344440    2.5663519    1.7985719 
C    -0.3774775    3.1141958    0.8990632 
C    -1.1229190    2.8674681    3.1196851 
C    -0.1530212    3.7146236    3.5321167 
C     0.7072518    4.2635999    2.6375053 
C     0.5978858    3.9692047    1.3127732 
H    -0.4726770    2.8572578   -0.1540258 
H    -0.0737406    3.9459771    4.5886260 
H     1.4819936    4.9396262    2.9896741 
H    -2.0063355    1.8839645    1.4589988 
C     1.5713889    4.5712679    0.3213879 
C     2.9152150    3.7973572    0.2922406 
H     1.7472156    5.6324720    0.6047420 
H     1.1299012    4.6022698   -0.7011844 
C     2.8325898    2.4620772   -0.4440567 
O    -1.9886639    2.3200842    4.0719022 
H    -2.6850818    1.6942061    3.6825047 
O     1.6761943    2.0854779   -1.1219730 
N     3.9631262    4.6450814   -0.2941043 
H     3.2136921    3.5492132    1.3359422 
H     3.7064556    4.9081614   -1.2773730 
H     4.0686860    5.5285199    0.2563131 
N     3.9131166    1.5222160   -0.3477405 
C     4.7040588    1.2342473   -1.5603310 
H     4.1343351    1.0981411    0.5794622 
C     5.2732707    2.5035174   -2.2039593 
O     4.5615849    3.1646019   -3.2014366 
O     6.4871845    3.0490442   -1.7843250 
H     6.8633234    2.5554012   -0.9890558 
C     3.8586892    0.3865522   -2.5346285 
H     5.5803938    0.6187210   -1.2582310 
C     4.7019688   -0.1935165   -3.6482375 
H     3.0378006    1.0045568   -2.9651533 
H     3.3583063   -0.4352011   -1.9778809 
C     5.4388818   -1.3136800   -3.5968639 
C     5.5955397   -2.2064535   -2.5859469 
C     6.4206161   -3.2739042   -2.7867550 
C     7.0713443   -3.4292898   -3.9796485 
C     6.9013160   -2.5174528   -4.9790392 
C     6.0777683   -1.4716049   -4.7569862 
H     5.0819887   -2.0818202   -1.6373553 
H     6.5625041   -4.0041801   -1.9939953 
H     7.7285410   -4.2816566   -4.1314044 
H     7.4134557   -2.6230655   -5.9292683 
N     5.7760507   -0.4102110   -5.6516258 
C     4.8834510    0.3781963   -4.8516304 
H     6.1116347   -0.2501608   -6.6288602 
H     4.4412264    1.3232546   -5.1652333 
