48
Energy =
C    -0.4411582   -3.2823795    2.2144869 
C    -0.8175375   -2.6634556    1.0635286 
C     0.8449706   -3.1881042    2.6554002 
C     1.7459997   -2.4762600    1.9398996 
C     1.3636684   -1.8642960    0.7931434 
C     0.0876732   -1.9373694    0.3528408 
H    -1.8433794   -2.7576306    0.7176514 
H     2.7681614   -2.4017688    2.2933682 
H     2.0525568   -1.2064038    0.1038695 
H    -1.1690087   -3.8558736    2.7781832 
C    -0.2788650   -1.2785513   -0.9686619 
C     0.3486532    0.1370689   -1.1764152 
H    -1.3857492   -1.1907252   -1.0348416 
H     0.0403186   -1.9486757   -1.7971190 
C     1.8783948    0.1193621   -1.4037480 
O     1.2637210   -3.8117005    3.8349593 
H     0.5300205   -4.3241136    4.3116290 
O     2.7100582   -0.5953941   -0.5327478 
N    -0.3553486    0.8087567   -2.2833748 
H     0.2061283    0.7357154   -0.2448773 
H    -0.3578285    0.1944637   -3.1332652 
H    -1.3544412    0.9820417   -2.0183055 
N     2.4897562    1.0449192   -2.3182131 
C     3.9558344    1.2107715   -2.2666049 
H     1.8870458    1.6184260   -2.9530924 
C     4.3715643    2.6020305   -2.7350689 
O     3.7564624    3.1643349   -3.8482707 
O     5.4103901    3.3053364   -2.1226200 
H     5.8567537    2.7767229   -1.3877126 
C     4.6015950    0.1062602   -3.1276936 
H     4.3032791    1.1170992   -1.2117621 
C     6.1007653    0.0537660   -2.9378729 
H     4.3397918    0.2507283   -4.1990126 
H     4.1738291   -0.8790086   -2.8336647 
C     7.0349861    0.6911016   -3.6623955 
C     6.8992206    1.5038968   -4.7418529 
C     8.0243598    2.0428029   -5.2928417 
C     9.2543366    1.7654324   -4.7634528 
C     9.3664066    0.9490767   -3.6773769 
C     8.2386615    0.4275841   -3.1503190 
H     5.9237884    1.7376491   -5.1585108 
H     7.9404229    2.7030542   -6.1528564 
H    10.1454675    2.2031984   -5.2062463 
H    10.3336438    0.7247303   -3.2408280 
N     8.1345626   -0.4243165   -2.0179342 
C     6.7158228   -0.6129304   -1.9456403 
H     8.8884818   -0.8077986   -1.4030262 
H     6.2108411   -1.2008085   -1.1817434 
