48
 energy: -9.292816556028 gnorm: 0.000536864405 xtb: 6.6.0 (2ccbbd7)
C           -3.83668008743050        1.57160000278011       -3.31564128710985
C           -2.51099726747572        1.85143390781309       -3.08163245197908
C           -4.82131251915952        2.00429919964537       -2.42685390740912
C           -4.42407699491814        2.72526631871628       -1.30126149439902
C           -3.09700034107609        3.00141693355379       -1.07447758217130
C           -2.12094211175395        2.57195109153946       -1.96248607078325
H           -1.75811797577260        1.50749426574581       -3.76994497781763
H           -5.18280612332577        3.05874354105794       -0.61612261592373
H           -2.80464063146234        3.55555737165239       -0.19903036365282
H           -4.12772220811950        1.01261154906155       -4.18675600720600
C           -0.67158674341032        2.83006906401221       -1.69375645255562
C            0.07476583089326        1.58983653655093       -1.19614743720631
H           -0.56749183800678        3.62240768338236       -0.94641143489272
H           -0.19125626160359        3.21424792871147       -2.59968549396554
C            1.52132047779569        1.92717709718204       -0.94787819082670
O           -6.16187964804794        1.73770534499255       -2.63045689166827
H           -6.28058985556336        1.22317838690803       -3.45788770488778
O            1.79481390382522        2.52308544723772        0.07259114814812
N           -0.48183712053760        1.06735194921811        0.04225980464378
H            0.01368415725922        0.79438862817586       -1.95397982916831
H           -0.11855779954590        1.63700215937925        0.80106301914534
H           -1.49143052477987        1.14001925917229        0.04108409798686
N            2.45368996662697        1.58033169618883       -1.89635732972468
C            3.89048995938829        1.78286310401709       -1.71793211776622
H            2.18071463811539        1.12044714478838       -2.76402699246895
C            4.27716993435689        3.21384495400200       -2.05997411071065
O            5.21309809633325        3.42196619046425       -2.79981167691135
O            3.52104633980805        4.16335411600448       -1.46234286298472
H            2.87006370749063        3.70979806394074       -0.87134269109331
C            4.71183044079328        0.74877078848783       -2.51989701495003
H            4.08949202380195        1.65260010601566       -0.64284333212829
C            4.09650763690473        0.36221500928413       -3.82624986414637
H            4.84447983194296       -0.16057971227468       -1.92353959629759
H            5.71730701252951        1.14607826367124       -2.69461116625364
C            4.01488621735805        1.13441697111842       -5.02550497614756
C            4.48498875690333        2.40845436930474       -5.38685076208836
C            4.24166341967139        2.87352151272948       -6.64836829219845
C            3.52855589153706        2.10234560741885       -7.57948454894472
C            3.04856763082701        0.86444020640065       -7.25081578833707
C            3.28928382942042        0.37197522519214       -5.96177666589850
H            4.99531128468461        3.00958535116941       -4.65720451025913
H            4.59452125575568        3.85146470696069       -6.93134206570219
H            3.35327161113468        2.49666356034152       -8.56672553003010
H            2.49695013305996        0.26818551719169       -7.95525445015163
N            2.92534040989591       -0.80975100388933       -5.34307127491806
C            3.41791037477380       -0.80860395854989       -4.06243487163150
H            2.39399134430578       -1.56001590135353       -5.78851429398182
H            3.26999414530304       -1.60061045085894       -3.34609780791335
