48
Energy =
C     1.8481907   -0.5135262   -5.4101484 
C     1.2079504   -0.0263282   -4.3167274 
C     2.5565323   -1.6716345   -5.3265017 
C     2.6280244   -2.3270485   -4.1459188 
C     1.9909071   -1.8425342   -3.0501394 
C     1.2661098   -0.6935136   -3.1323392 
H     0.6485092    0.9038716   -4.3921660 
H     3.2003865   -3.2455993   -4.0905626 
H     2.0584250   -2.3841003   -2.1108035 
H     1.7942558    0.0301717   -6.3480753 
C     0.5370382   -0.1678773   -1.9141666 
C     1.4482872    0.7097840   -1.0203169 
H     0.1523860   -1.0340431   -1.3331467 
H    -0.3649937    0.4119763   -2.2140101 
C     1.6928573    2.1035368   -1.5940177 
O     3.2288113   -2.2011992   -6.4335244 
H     3.0858540   -1.6656464   -7.2828309 
O     0.9430750    2.5491967   -2.6773590 
N     0.8689271    0.8125477    0.3268153 
H     2.4486851    0.2291451   -0.9426646 
H    -0.0690952    1.2763278    0.2562342 
H     0.7229205   -0.1419697    0.7290156 
N     2.4233302    3.0845600   -0.8314168 
C     3.5240020    3.7818211   -1.5487146 
H     2.7554516    2.6604303    0.0643533 
C     3.2852607    4.0669889   -3.0248283 
O     4.4050371    3.9798535   -3.8426438 
O     2.0317214    4.2268396   -3.5782539 
H     1.4924073    3.3878388   -3.1291047 
C     4.9039463    3.0906221   -1.3331407 
H     3.6015538    4.7953634   -1.1000128 
C     5.1006604    1.8264902   -2.1593533 
H     5.0509524    2.8804578   -0.2520526 
H     5.7115504    3.8035909   -1.6116975 
C     5.1927696    1.6932502   -3.5127971 
C     5.1193253    2.6427024   -4.5556500 
C     5.1877953    2.1377525   -5.8321427 
C     5.3165803    0.8031753   -6.0726183 
C     5.3889758   -0.0775441   -5.0458881 
C     5.3158137    0.3885028   -3.7872988 
H     5.1153346    3.9536027   -4.7008392 
H     5.1444948    2.8194665   -6.6788071 
H     5.3628801    0.4382502   -7.0957175 
H     5.4855289   -1.1426430   -5.2325115 
N     5.3359098   -0.3982791   -2.6057285 
C     5.1890736    0.6068363   -1.6029649 
H     5.4341670   -1.4345053   -2.5059623 
H     5.1356050    0.4011313   -0.5366434 
