48
Energy =
C    -2.8323985   -0.0590438    1.1421113 
C    -1.6406490   -0.2836430    0.5331629 
C    -2.8701698    0.3953188    2.4234233 
C    -1.7134357    0.6239038    3.0859717 
C    -0.5188825    0.4014836    2.4816265 
C    -0.4761245   -0.0587416    1.2017250 
H    -1.6247412   -0.6395794   -0.4937194 
H    -1.7572540    0.9893290    4.1060983 
H     0.4006004    0.5950420    3.0283593 
H    -3.7546376   -0.2414073    0.6012027 
C     0.8531138   -0.2928743    0.5221615 
C     1.4905631    1.0186478    0.0089295 
H     0.7389582   -1.0080251   -0.3192593 
H     1.5455927   -0.7858935    1.2424061 
C     2.8963559    0.7608718   -0.4931194 
O    -4.0809881    0.6362350    3.0806134 
H    -4.9017367    0.4474923    2.5156335 
O     3.9384036    0.7839030    0.4309789 
N     0.6541364    1.6372253   -1.0350746 
H     1.6134084    1.7331441    0.8583031 
H     0.3857739    0.9220053   -1.7515754 
H    -0.2320411    1.9966360   -0.6080217 
N     3.0930912    0.1945323   -1.8035866 
C     4.3906805   -0.5054810   -1.9757310 
H     2.9985175    0.9866663   -2.4829539 
C     5.4874478    0.4189621   -2.5094833 
O     5.5791596    0.6543374   -3.8769252 
O     6.4048441    1.0427271   -1.6649465 
H     6.1599260    0.9414615   -0.6897575 
C     4.1637282   -1.7038579   -2.9227677 
H     4.7725723   -0.9183702   -1.0119740 
C     3.1984488   -2.7035253   -2.3228898 
H     5.1330974   -2.2107320   -3.1327570 
H     3.7841671   -1.3440860   -3.9051625 
C     1.8588183   -2.6950748   -2.4239849 
C     1.0396831   -1.8467056   -3.0970629 
C    -0.3069536   -2.0431852   -3.0142326 
C    -0.8104146   -3.0722975   -2.2689580 
C     0.0303064   -3.9114044   -1.5996821 
C     1.3593660   -3.6980932   -1.6994724 
H     1.4365038   -1.0194077   -3.6771603 
H    -0.9832657   -1.3750152   -3.5391482 
H    -1.8857677   -3.2193909   -2.2087751 
H    -0.3529907   -4.7293369   -0.9988023 
N     2.3965607   -4.4341288   -1.0667267 
C     3.5550107   -3.7186953   -1.5163532 
H     2.3306712   -5.2689329   -0.4393546 
H     4.5758640   -3.9558046   -1.2235981 
