48
 energy: -9.303045137638 gnorm: 0.000769240310 xtb: 6.6.0 (2ccbbd7)
C            1.01449370574706        5.62856175165733       -5.40851261264706
C            1.00249322761680        4.68666746474128       -4.40869493014137
C           -0.02433744162398        5.68882706645143       -6.33777671260373
C           -1.06528254487196        4.76718481301627       -6.22579010550481
C           -1.06993198824471        3.82812113928360       -5.22208576386678
C           -0.04029487069200        3.77881739882750       -4.29453808508290
H            1.82435347281524        4.62563420345961       -3.71405975886904
H           -1.86285158594700        4.80981937835891       -6.94570290025621
H           -1.87446811746334        3.11648694886136       -5.15250815569805
H            1.82973455254306        6.32534230236248       -5.48593797447838
C           -0.01367558977169        2.74107609296724       -3.21627048808631
C            1.10753762246308        1.72560606289462       -3.43680246848106
H           -0.96898684345988        2.21083488315192       -3.17022124610192
H            0.10771963059035        3.23192845258013       -2.24598915896876
C            1.28444668125714        0.81114439743897       -2.24713080134183
O           -0.04480373655349        6.62506301006757       -7.35419108896827
H            0.74081792689532        7.20973439041129       -7.28780470324614
O            0.48072638107169       -0.09368478969694       -2.14590034261873
N            0.83663757684099        0.89957359653016       -4.60115518098758
H            2.04011335166788        2.27716647814011       -3.61996718493851
H            1.68966490315100        0.37800467022842       -4.81625645303578
H            0.14159211404829        0.21679461627549       -4.31651924744925
N            2.30063558866736        0.97787481170252       -1.32512797309432
C            3.42831327556560        1.92242161064734       -1.42097908211214
H            2.42127641226468        0.25168545388416       -0.62204753367199
C            2.94137064591112        3.30180220328432       -1.81603444499358
O            3.48666588728666        3.91095762121730       -2.70974356336979
O            1.87875276185128        3.74896367088665       -1.10372110492410
H            1.61504533676704        3.07136721823663       -0.43795100671018
C            4.58042671974703        1.39080066637924       -2.29278722749654
H            3.81854350387542        2.04676653587106       -0.39736303129034
C            4.18673570634714        0.84512206040144       -3.62544387085144
H            5.10672541490071        0.59834094092540       -1.74950744595048
H            5.31259074169298        2.19159287482056       -2.43902238915015
C            4.15848788360097        1.54110140256627       -4.87204657041563
C            4.40461718411980        2.87771934278947       -5.22875302756969
C            4.27275965010089        3.24484205024483       -6.53879192645539
C            3.89946420995491        2.31220485388542       -7.51977937714489
C            3.64476585675291        1.00772726806123       -7.19611717153701
C            3.76996935434803        0.61323960245810       -5.85831011977808
H            4.64050078251458        3.59660979525955       -4.46414100179241
H            4.44662915928563        4.26930655042640       -6.82333610067440
H            3.80358262456964        2.63411058027244       -8.54350611278601
H            3.34465487374904        0.29020704224367       -7.93848566785682
N            3.52832194297699       -0.59339168174343       -5.22252920245491
C            3.80510918671021       -0.44858668381250       -3.88433428111023
H            3.29181481392598       -1.46693926137751       -5.69782362127538
H            3.70589497332827       -1.22885127697179       -3.14681375740175
