48
 energy: -9.294336956165 gnorm: 0.000622987096 xtb: 6.6.0 (2ccbbd7)
C           -4.02201987533496        2.37332936693407       -0.67813333164064
C           -2.78168243568652        2.42567302463628       -1.26915733501450
C           -4.62311027428867        1.14594887780909       -0.39626158242360
C           -3.93199657883670       -0.01964864568047       -0.72645445824990
C           -2.69175290429905        0.04108237900397       -1.31560407758945
C           -2.10067616936708        1.26304232498034       -1.60128458630513
H           -2.32619057397086        3.37834606584271       -1.47930813916582
H           -4.39398897728774       -0.96577781917019       -0.50764383016323
H           -2.16565967188268       -0.86571764277741       -1.56083844600243
H           -4.54192674270720        3.28063936638828       -0.42685125128830
C           -0.73339127644146        1.32033711275679       -2.20679140274821
C            0.38726314087885        1.12792116679726       -1.18142483796293
H           -0.58876199639633        2.27904013841010       -2.71355610630754
H           -0.64229321494163        0.56013714018450       -2.99024117086212
C            1.73199840122205        1.04692440020009       -1.86949413854787
O           -5.86891316066563        1.05850100385392        0.19552039941342
H           -6.22507958692378        1.95814143046267        0.36272553867967
O            1.79895828775572        0.64755966417187       -3.01512130446560
N            0.38957040881216        2.18388549416727       -0.17687707635682
H            0.23048712682351        0.17223682354162       -0.65757767973623
H            0.59418286279404        3.06866119519828       -0.62210632835091
H           -0.52264072246289        2.26515553696040        0.25191582271378
N            2.83204760523222        1.44414522725007       -1.14586850366223
C            4.19606311917245        1.46233200675478       -1.68607493801555
H            2.70630011769911        1.88245748916528       -0.22626472366286
C            4.39726679256876        2.68943077692761       -2.55207095983287
O            5.33440853266926        3.42213772431930       -2.32195933668996
O            3.50512915378204        2.83701321541398       -3.55891925351880
H            2.83709709667206        2.11304134134828       -3.48042094644956
C            4.50983991982114        0.17324400805048       -2.44659610627523
H            4.89717019677717        1.54450842481180       -0.84235544710132
C            5.93109857077551        0.03146927735372       -2.88206527348866
H            3.85594455372488        0.11412371733317       -3.32067160024717
H            4.23475823899992       -0.68239193595780       -1.82190738606920
C            6.58545062889912        0.72547601575199       -3.94524453581641
C            6.17413288895549        1.73246229712799       -4.83672562146573
C            7.06391649012873        2.19776828870899       -5.76372567387807
C            8.36992835008185        1.68786381998150       -5.83648473050614
C            8.79825464145044        0.71579476698043       -4.97471545044419
C            7.90170831072028        0.22878740381590       -4.01513419180495
H            5.19257919733231        2.16195198615737       -4.74113558071021
H            6.76407044787311        2.98105585255664       -6.44030193832955
H            9.04766051916375        2.07761749283190       -6.57793515126615
H            9.79914602866410        0.32508750823272       -5.01670436955470
N            8.04055262645263       -0.72443411109156       -3.02272194638326
C            6.85284763761214       -0.83261323914187       -2.34386729489643
H            8.89932504839732       -1.24337537815524       -2.83012435288394
H            6.67295875986214       -1.50696214460840       -1.52215048263413
