48
Energy =
C     1.0053797   -2.7436634   -1.9727598 
C     1.4019805   -1.7667168   -1.1165319 
C    -0.2835283   -2.7961996   -2.4019787 
C    -1.1675663   -1.8680664   -1.9739514 
C    -0.7794048   -0.8936824   -1.1136553 
C     0.5084543   -0.8404799   -0.6743068 
H     2.4376225   -1.7304083   -0.7829113 
H    -2.1919472   -1.9189950   -2.3256056 
H    -1.5073214   -0.1596478   -0.7792573 
H     1.7197958   -3.4826930   -2.3159237 
C     0.9396076    0.2396656    0.2962537 
C     1.5966150    1.4638241   -0.3875715 
H     1.6466310   -0.1923158    1.0410915 
H     0.0655061    0.5859728    0.8900925 
C     2.9661459    1.1488494   -0.9737841 
O    -0.7272180   -3.7947404   -3.2750054 
H     0.0027162   -4.4318963   -3.5725064 
O     3.8651470    0.4227941   -0.1968644 
N     0.6856935    2.0625364   -1.3817541 
H     1.8083250    2.2224094    0.4013507 
H     0.5544647    1.4026218   -2.1867155 
H    -0.2554071    2.2264690   -0.9536211 
N     3.4955802    1.9878336   -2.0095610 
C     4.6362557    1.4801826   -2.7994457 
H     3.0272969    2.9047228   -2.1991506 
C     5.1813159    2.5484773   -3.7420611 
O     5.2096446    2.3349856   -5.1143075 
O     5.6659692    3.7581971   -3.2483281 
H     5.5767154    3.8125308   -2.2437737 
C     4.2836790    0.1465029   -3.5150914 
H     5.4853373    1.2718847   -2.1073721 
C     2.9800210    0.1152788   -4.2958483 
H     4.2381901   -0.6503715   -2.7413586 
H     5.1076554   -0.1320110   -4.2103928 
C     2.4163864   -0.9953686   -4.7974160 
C     2.8477312   -2.2835597   -4.7481881 
C     2.1010258   -3.2416723   -5.3677564 
C     0.9467339   -2.9031158   -6.0181193 
C     0.5369974   -1.6035361   -6.0591561 
C     1.2947003   -0.6734700   -5.4415624 
H     3.7703386   -2.5514338   -4.2415369 
H     2.4287801   -4.2785514   -5.3508633 
H     0.3533886   -3.6709805   -6.5083280 
H    -0.3699306   -1.3169883   -6.5791732 
N     1.0730578    0.7282412   -5.4041757 
C     2.2210222    1.1669603   -4.6630928 
H     0.2837237    1.2864021   -5.8019544 
H     2.4561414    2.2096585   -4.4705015 
