48
Energy =
C     4.2595131    6.1249113    1.3786876 
C     3.8665380    4.8573419    1.0903350 
C     3.5316075    6.8877043    2.2369813 
C     2.4142789    6.3770877    2.8022093 
C     2.0155039    5.1111751    2.5183712 
C     2.7411733    4.3418148    1.6616075 
H     4.4644959    4.2563039    0.4020365 
H     1.8433340    6.9973397    3.4849133 
H     1.1125580    4.7220958    2.9818661 
H     5.1580455    6.5272992    0.9217417 
C     2.2926792    2.9367471    1.3253025 
C     1.5173636    2.8897361   -0.0220501 
H     1.6660186    2.5157032    2.1420804 
H     3.1985263    2.2902567    1.2931337 
C     1.4237673    1.4913197   -0.6267257 
O     3.9077484    8.1962252    2.5540992 
H     4.7555932    8.5066323    2.0914895 
O     0.7020430    1.3231491   -1.8029499 
N     0.1738807    3.4717194    0.1507790 
H     2.0692294    3.4745468   -0.7975733 
H    -0.3397879    2.9954617    0.9294489 
H     0.2465596    4.4907065    0.3812528 
N     2.3434250    0.4540464   -0.2425808 
C     3.5773776    0.2801976   -1.0369763 
H     2.1410395   -0.1222998    0.6042558 
C     4.3135569    1.6026530   -1.2303023 
O     5.1914988    2.0350034   -0.2438014 
O     3.9574921    2.5028767   -2.2198882 
H     3.5469818    1.9505621   -3.1531106 
C     3.2585224   -0.5604538   -2.3058992 
H     4.2816571   -0.3275071   -0.4239514 
C     3.6824361    0.0408958   -3.6409376 
H     2.1625432   -0.7400132   -2.3750028 
H     3.6794600   -1.5770771   -2.1653989 
C     4.3353162   -0.6224183   -4.6028095 
C     5.0372903   -1.7874010   -4.5355324 
C     5.5887616   -2.2843556   -5.6788648 
C     5.4220699   -1.6271319   -6.8632711 
C     4.7010405   -0.4730863   -6.9067222 
C     4.1706609    0.0008501   -5.7576522 
H     5.1883368   -2.3133624   -3.5995865 
H     6.1644804   -3.2060367   -5.6473313 
H     5.8617689   -2.0267700   -7.7734585 
H     4.5484323    0.0567010   -7.8412461 
N     3.3524719    1.1486391   -5.6321202 
C     3.0845716    1.3366952   -4.2036164 
H     2.9536545    1.7361248   -6.3943502 
H     3.5253663    2.3372677   -4.4032126 
