48
Energy =
C    -3.7920740   -0.6763953   -1.9406665 
C    -3.0091492    0.4320042   -1.9566339 
C    -4.1072449   -1.2734644   -0.7601778 
C    -3.6366764   -0.7557172    0.3971987 
C    -2.8532699    0.3524832    0.3870383 
C    -2.5367066    0.9549421   -0.7918504 
H    -2.7648781    0.8989765   -2.9072790 
H    -3.8956605   -1.2412346    1.3317313 
H    -2.4821226    0.7515231    1.3273135 
H    -4.1647473   -1.0839083   -2.8742096 
C    -1.6483390    2.1787877   -0.8133196 
C    -0.1934746    1.8396612   -1.2156194 
H    -1.6564009    2.6920847    0.1753372 
H    -2.0731745    2.9137510   -1.5341632 
C     0.6109273    3.1009456   -1.4634055 
O    -4.9088787   -2.4183281   -0.7083995 
H    -5.2289658   -2.7381275   -1.6160063 
O     0.6420754    4.0993478   -0.4945456 
N     0.4562186    1.0081890   -0.1886513 
H    -0.2001792    1.2893250   -2.1849679 
H     0.3836292    1.4852958    0.7423157 
H    -0.0442846    0.0922883   -0.1088069 
N     1.6315288    3.0950569   -2.4706439 
C     2.9513420    2.7053192   -1.9024634 
H     1.6513930    4.0560894   -2.8863475 
C     4.0218540    3.7943447   -2.0446101 
O     5.3022964    3.4690271   -2.4734603 
O     3.7861430    5.1044063   -1.6296844 
H     2.8719839    5.2117540   -1.2113116 
C     3.3657983    1.3463108   -2.5186830 
H     2.9016181    2.5524528   -0.7956402 
C     3.4515731    1.3686478   -4.0359771 
H     2.6100614    0.5847196   -2.2253886 
H     4.3248419    1.0089017   -2.0723108 
C     4.5602125    1.3278541   -4.7990966 
C     5.8707930    1.2711107   -4.4435774 
C     6.8122628    1.2291106   -5.4300029 
C     6.4366558    1.2369384   -6.7440771 
C     5.1171907    1.2879297   -7.0798892 
C     4.2047621    1.3333323   -6.0866042 
H     6.1786428    1.2740882   -3.4031845 
H     7.8674609    1.1961738   -5.1686491 
H     7.1930068    1.2058253   -7.5245158 
H     4.8013800    1.2938754   -8.1176084 
N     2.7929893    1.3758917   -6.2268313 
C     2.3829621    1.3925884   -4.8542442 
H     2.2123029    1.3829064   -7.0965961 
H     1.3470845    1.4154762   -4.5260008 
