48
Energy =
C    -3.9816135   -0.2380458   -0.2964259 
C    -2.7774326   -0.7457186   -0.6621732 
C    -4.4610068    0.8843760   -0.8963304 
C    -3.7302034    1.4915390   -1.8589129 
C    -2.5254682    0.9880316   -2.2288967 
C    -2.0433373   -0.1374367   -1.6338245 
H    -2.4054701   -1.6422889   -0.1727485 
H    -4.1221425    2.3871704   -2.3281356 
H    -1.9512481    1.4944210   -3.0004831 
H    -4.5592586   -0.7315187    0.4775166 
C    -0.6937435   -0.6950441   -2.0278826 
C     0.4181950   -0.3243451   -1.0158666 
H    -0.4017790   -0.3495814   -3.0448922 
H    -0.7752951   -1.8032827   -2.1017459 
C     1.7289072   -1.0356688   -1.3237946 
O    -5.6976864    1.4341111   -0.5420370 
H    -6.1832274    0.9196826    0.1844680 
O     1.7874495   -2.0482359   -2.2785122 
N     0.6171138    1.1336374   -0.9765497 
H     0.1214442   -0.6760468   -0.0019754 
H     0.7876327    1.5052556   -1.9424212 
H    -0.2395628    1.6035329   -0.6019522 
N     2.9184607   -0.7041802   -0.5963275 
C     4.0670198   -0.1426088   -1.3334526 
H     2.9447353   -0.8710615    0.4338892 
C     3.6936347    1.0466343   -2.2273489 
O     4.0628642    2.3265642   -1.8329149 
O     3.0264158    0.8989813   -3.4480440 
H     2.7349446   -0.0524767   -3.6125902 
C     4.8096619   -1.2749305   -2.0764365 
H     4.7701335    0.2801630   -0.5798941 
C     6.1127696   -0.7904600   -2.6720333 
H     4.1692233   -1.7134932   -2.8724121 
H     5.0002018   -2.1125283   -1.3714160 
C     7.3050718   -0.7300444   -2.0579002 
C     7.6570167   -1.1019196   -0.8001157 
C     8.9518841   -0.9227724   -0.4102176 
C     9.8636542   -0.3772761   -1.2713739 
C     9.4856494   -0.0061562   -2.5276653 
C     8.1999742   -0.1966883   -2.8909537 
H     6.9339952   -1.5274486   -0.1112311 
H     9.2599741   -1.2113255    0.5919625 
H    10.8929345   -0.2340712   -0.9517870 
H    10.1940205    0.4352120   -3.2205365 
N     7.6004782    0.1357395   -4.1350348 
C     6.2444824   -0.2717750   -3.9061429 
H     8.0350765    0.5571096   -4.9880856 
H     5.4292639   -0.1324246   -4.6168611 
