48
Energy =
C     4.2596859    1.8138923    5.5992767 
C     4.2020022    1.3109187    4.3397686 
C     3.1192658    1.9868276    6.3188475 
C     1.9276179    1.6544853    5.7733024 
C     1.8632279    1.1514380    4.5142992 
C     3.0025030    0.9738638    3.7901236 
H     5.1230938    1.1778478    3.7774757 
H     1.0264651    1.7976153    6.3605739 
H     0.8941172    0.8931146    4.0951835 
H     5.2194572    2.0779516    6.0306803 
C     2.9375020    0.4302174    2.3800140 
C     3.0592442    1.5485874    1.3144909 
H     1.9981311   -0.1472065    2.2203822 
H     3.7594286   -0.3102150    2.2443741 
C     3.1924149    0.9900657   -0.0893676 
O     3.1420044    2.5045274    7.6169988 
H     4.0701611    2.7237204    7.9633924 
O     3.0414188   -0.3668746   -0.3446922 
N     1.9085852    2.4650033    1.3874928 
H     4.0024778    2.1203662    1.4890836 
H     1.0105109    1.9237439    1.3934470 
H     1.9454969    3.0121350    2.2812711 
N     3.4499730    1.8709673   -1.1815557 
C     4.7664420    1.7637353   -1.8494728 
H     2.7030701    2.5468755   -1.4727181 
C     5.1234599    3.0404038   -2.5896091 
O     6.1559991    3.8705098   -2.1465181 
O     4.3687861    3.3578902   -3.7309804 
H     3.5531017    2.5301758   -3.9550598 
C     4.7925453    0.5728341   -2.8385611 
H     5.5560439    1.5936018   -1.0830769 
C     3.7080446    0.5514122   -3.9169553 
H     4.7264802   -0.3681194   -2.2533112 
H     5.7833526    0.5529756   -3.3440195 
C     3.5613636   -0.4546877   -4.7826379 
C     4.2799441   -1.6063672   -4.8909842 
C     3.9426882   -2.4952055   -5.8673138 
C     2.9053232   -2.2253347   -6.7125712 
C     2.2025131   -1.0661059   -6.5823313 
C     2.5564993   -0.2016126   -5.6049547 
H     5.1090596   -1.8301806   -4.2239170 
H     4.5023627   -3.4224529   -5.9752916 
H     2.6403853   -2.9366306   -7.4923736 
H     1.3762601   -0.8376563   -7.2492632 
N     1.9359098    1.0408806   -5.3302353 
C     2.6628985    1.6428748   -4.2123725 
H     1.1161608    1.4538753   -5.8300180 
H     2.6814982    2.5966167   -4.7774597 
