48
Energy =
C     0.8510800    4.6955484   -2.7426123 
C     0.3904353    3.4254241   -2.8784488 
C     0.1622520    5.5964339   -1.9955942 
C    -0.9817822    5.2186874   -1.3819149 
C    -1.4363631    3.9450291   -1.4966613 
C    -0.7502380    3.0378424   -2.2456121 
H     0.9617241    2.7119116   -3.4715374 
H    -1.5202752    5.9461435   -0.7846985 
H    -2.3455191    3.6574232   -0.9759479 
H     1.7856286    4.9826828   -3.2125697 
C    -1.2279926    1.6021757   -2.3366287 
C    -0.4140830    0.6225853   -1.4502865 
H    -1.1840580    1.2678089   -3.3985338 
H    -2.3003356    1.5354216   -2.0498939 
C     0.9908584    0.3871119   -1.9862781 
O     0.6053216    6.9143791   -1.8419731 
H     1.5118583    7.0981688   -2.2585212 
O     1.1303246    0.0141706   -3.3194120 
N    -0.4178811    1.0581398   -0.0412328 
H    -0.8988723   -0.3788174   -1.5121483 
H     0.1039574    1.9633879    0.0490311 
H    -1.4006821    1.2400519    0.2700725 
N     2.0783159    0.1263909   -1.0873808 
C     3.3681443    0.8083924   -1.3150874 
H     1.9172467   -0.5134772   -0.2780501 
C     3.2051525    2.3136258   -1.5287962 
O     3.4710643    2.8831449   -2.7710673 
O     2.7676723    3.1479055   -0.5027725 
H     2.5675093    2.6221161    0.3356229 
C     4.1323471    0.1332599   -2.4722878 
H     3.9848007    0.7019141   -0.3957700 
C     4.3474788   -1.3400511   -2.2145711 
H     5.1136448    0.6338302   -2.6198428 
H     3.5689291    0.2728144   -3.4221577 
C     5.3093743   -1.8906407   -1.4586687 
C     6.3254707   -1.3013719   -0.7772951 
C     7.1764058   -2.0970804   -0.0679391 
C     6.9996156   -3.4531882   -0.0485766 
C     5.9699918   -4.0220794   -0.7379909 
C     5.1428813   -3.2141290   -1.4338066 
H     6.4655560   -0.2242866   -0.7888332 
H     7.9989001   -1.6505423    0.4860058 
H     7.6814999   -4.0805644    0.5203147 
H     5.8134879   -5.0956142   -0.7299415 
N     4.0114575   -3.5992277   -2.2018427 
C     3.5488126   -2.3232647   -2.6663126 
H     3.6201276   -4.5527892   -2.3801718 
H     2.6585799   -2.1731786   -3.2750596 
