48
Energy =
C     2.3578877   -2.3251794    4.1815683 
C     2.1058197   -2.4100346    2.8507454 
C     1.8383037   -1.3028436    4.9119148 
C     1.0684533   -0.3722636    4.3045293 
C     0.8102603   -0.4545422    2.9752308 
C     1.3332356   -1.4710614    2.2352202 
H     2.5271212   -3.2350561    2.2831654 
H     0.6636337    0.4417630    4.8955861 
H     0.1921595    0.3063690    2.5063701 
H     2.9753773   -3.0775653    4.6602653 
C     1.0490752   -1.5688611    0.7473823 
C     2.0817822   -0.8482194   -0.1597723 
H     0.0322731   -1.1698258    0.5346422 
H     1.0096045   -2.6415199    0.4554978 
C     1.9575077    0.6688708   -0.1337888 
O     2.0769558   -1.1878371    6.2852429 
H     2.6723778   -1.9166466    6.6627928 
O     2.0485630    1.3774645    1.0585210 
N     3.4589852   -1.2836945    0.1244727 
H     1.8393049   -1.1430985   -1.2046678 
H     3.7518724   -0.9223033    1.0652540 
H     3.5047687   -2.3283216    0.1546423 
N     1.8931171    1.4080933   -1.3580873 
C     3.0106534    2.3316280   -1.6404933 
H     1.1035897    1.2473572   -2.0243235 
C     2.5034392    3.7320756   -1.9728791 
O     3.1528004    4.5021997   -2.9307082 
O     1.4527190    4.3109499   -1.2644312 
H     1.1422604    3.7081795   -0.5140432 
C     3.9278107    1.7238520   -2.7313207 
H     3.6320750    2.4914130   -0.7263406 
C     3.1685494    1.2208321   -3.9456559 
H     4.5132088    0.8994506   -2.2741172 
H     4.6816558    2.4744380   -3.0609482 
C     2.9076179   -0.0598712   -4.2639985 
C     3.2602311   -1.2098458   -3.6308370 
C     2.8594862   -2.3971882   -4.1683205 
C     2.1238403   -2.4207590   -5.3201131 
C     1.7855777   -1.2564207   -5.9423417 
C     2.1928030   -0.0941502   -5.3907022 
H     3.8476587   -1.2021472   -2.7183421 
H     3.1303638   -3.3298844   -3.6794525 
H     1.8103740   -3.3715510   -5.7439307 
H     1.2052203   -1.2570336   -6.8588187 
N     1.9486798    1.2158153   -5.8794233 
C     2.6153078    2.0081775   -4.8869944 
H     1.4247138    1.5209896   -6.7319245 
H     2.6624746    3.0957410   -4.9022529 
