48
Energy =
C    -1.9340462    5.1076731   -2.4051850 
C    -0.8545171    4.6579149   -1.7142266 
C    -2.1349912    6.4423129   -2.5651844 
C    -1.2526694    7.3186373   -2.0350571 
C    -0.1701638    6.8746229   -1.3474213 
C     0.0360696    5.5384114   -1.1805390 
H    -0.6965042    3.5863587   -1.6081171 
H    -1.4241024    8.3811047   -2.1706572 
H     0.5262112    7.5987181   -0.9330329 
H    -2.6329838    4.3979365   -2.8354841 
C     1.2505433    5.0433369   -0.4169930 
C     2.4081059    4.5254230   -1.3159933 
H     0.9389771    4.2463511    0.2947115 
H     1.6473257    5.8616341    0.2250054 
C     2.1896546    3.0994660   -1.7980054 
O    -3.2364104    6.9384720   -3.2690964 
H    -3.8427428    6.2193847   -3.6484234 
O     1.2468185    2.8362135   -2.7828069 
N     2.6767923    5.4368156   -2.4405820 
H     3.3269501    4.4824132   -0.6855345 
H     1.8872644    5.3862461   -3.1299546 
H     2.7333375    6.4226109   -2.0953952 
N     2.6517925    2.0028647   -1.0045529 
C     3.9108720    1.3344653   -1.3903171 
H     2.1175439    1.7380701   -0.1480773 
C     5.1370948    2.2352310   -1.2202752 
O     5.9953493    2.0060255   -0.1524433 
O     5.4024560    3.3195615   -2.0586585 
H     4.7086412    3.4141765   -2.7834043 
C     3.7682134    0.7098735   -2.7986226 
H     4.0727147    0.4974733   -0.6727989 
C     4.8643230   -0.2955101   -3.0807257 
H     3.7308544    1.4878918   -3.5893796 
H     2.7852305    0.1897151   -2.8590981 
C     6.0139334   -0.0871686   -3.7442785 
C     6.4811225    1.0318634   -4.3555494 
C     7.7012011    0.9788230   -4.9626716 
C     8.4284373   -0.1788607   -4.9523696 
C     7.9396556   -1.2910873   -4.3344625 
C     6.7301642   -1.2135766   -3.7405583 
H     5.9098547    1.9529358   -4.3674456 
H     8.0983359    1.8636655   -5.4539857 
H     9.4012395   -0.2117458   -5.4360549 
H     8.5047422   -2.2165683   -4.3145932 
N     6.0502568   -2.2476943   -3.0433920 
C     4.8534105   -1.5677641   -2.6449875 
H     6.3447046   -3.2360900   -2.8719781 
H     4.0563350   -2.0190160   -2.0589184 
