48
Energy =
C    -0.8283074    4.4148100   -6.3274649 
C    -0.2988520    3.3954954   -5.6053015 
C    -1.6236149    5.3385708   -5.7249116 
C    -1.8823376    5.2362588   -4.4014167 
C    -1.3548340    4.2193449   -3.6737052 
C    -0.5607738    3.2902109   -4.2729058 
H     0.3379326    2.6680996   -6.1018240 
H    -2.5170079    5.9804801   -3.9326608 
H    -1.5744546    4.1548667   -2.6107292 
H    -0.6131281    4.4894490   -7.3877687 
C     0.0364357    2.1647609   -3.4579110 
C     1.2494594    2.6346502   -2.6115832 
H     0.3351202    1.3179600   -4.1145535 
H    -0.7573783    1.7615586   -2.7858104 
C     1.5821076    1.6108224   -1.5487970 
O    -2.1865376    6.4002375   -6.4406282 
H    -1.9389570    6.4118441   -7.4239860 
O     0.7465499    1.4817915   -0.4472972 
N     2.4227072    2.9100331   -3.4691250 
H     0.9881108    3.5572778   -2.0403385 
H     2.6616943    2.0548639   -4.0261325 
H     2.1267720    3.5847226   -4.2162531 
N     2.5258110    0.5701565   -1.8273042 
C     3.9367218    1.0367073   -1.7636028 
H     2.2791911    0.1719899   -2.7592651 
C     4.1962318    2.5562963   -1.9598852 
O     3.4550976    3.4092437   -2.8258944 
O     5.2734731    3.1493333   -1.2949315 
H     5.7899043    2.5036926   -0.7178703 
C     4.8289802    0.2110323   -2.7233530 
H     4.2784370    0.8219023   -0.7271209 
C     4.7592380   -1.2727396   -2.4289249 
H     5.8894360    0.5352118   -2.6201547 
H     4.5502297    0.4222183   -3.7770329 
C     4.0893732   -2.2114490   -3.1199939 
C     3.3369157   -2.1008661   -4.2468075 
C     2.7530690   -3.2260579   -4.7499968 
C     2.9268163   -4.4316069   -4.1289899 
C     3.6865550   -4.5198699   -3.0008467 
C     4.2546851   -3.3933003   -2.5221539 
H     3.1950670   -1.1489450   -4.7468409 
H     2.1464251   -3.1645190   -5.6502513 
H     2.4574258   -5.3237761   -4.5359112 
H     3.8339143   -5.4681648   -2.4953070 
N     5.0734652   -3.2706037   -1.3682000 
C     5.3540528   -1.8655799   -1.3785436 
H     5.3879091   -4.0082913   -0.6969647 
H     5.9549412   -1.3549363   -0.6297381 
