48
Energy =
C     1.2359258   -5.1697897    1.6837213 
C     1.3449964   -3.8268699    1.8445911 
C     0.5817690   -5.6781646    0.6054183 
C     0.0404855   -4.8375660   -0.3053082 
C     0.1469320   -3.4935614   -0.1499718 
C     0.7981313   -2.9797911    0.9291784 
H     1.8757717   -3.4366622    2.7090601 
H    -0.4788440   -5.2560125   -1.1604496 
H    -0.2937097   -2.8342080   -0.8931821 
H     1.6747703   -5.8355532    2.4188843 
C     0.9334839   -1.4819595    1.0915407 
C     2.0553139   -0.8927082    0.2010721 
H     1.1160177   -1.2113791    2.1559475 
H    -0.0386389   -1.0051722    0.8303420 
C     2.0325594    0.6303756    0.1931097 
O     0.4534322   -7.0569397    0.4083171 
H     0.8786276   -7.6184182    1.1380487 
O     1.2557286    1.3231073    1.1143369 
N     3.3737295   -1.3877781    0.6335417 
H     1.8704562   -1.2014581   -0.8524827 
H     3.4971006   -1.2229598    1.6615671 
H     3.4330408   -2.4207507    0.4721579 
N     2.5892038    1.3620753   -0.9051525 
C     4.0560781    1.3616493   -1.0635688 
H     1.9408690    1.7730875   -1.6152757 
C     4.5855608    2.7609929   -1.3592494 
O     3.7939854    3.6767804   -2.0427128 
O     5.9022254    3.1147924   -1.0560958 
H     6.3937519    2.3832781   -0.5648612 
C     4.4726362    0.3493412   -2.1565285 
H     4.5365869    1.0578160   -0.1048170 
C     3.8358595    0.6298089   -3.5030947 
H     4.1918329   -0.6748181   -1.8295032 
H     5.5796081    0.3363258   -2.2593254 
C     4.3022492    1.4353208   -4.4725856 
C     5.4386326    2.1779168   -4.5215781 
C     5.6789966    2.9237042   -5.6379624 
C     4.7932351    2.9136302   -6.6795613 
C     3.6605839    2.1583932   -6.6103778 
C     3.4437103    1.4309568   -5.4944748 
H     6.1414470    2.1965796   -3.6942558 
H     6.5762510    3.5356556   -5.6952108 
H     4.9900505    3.5146506   -7.5639147 
H     2.9458773    2.1417039   -7.4261554 
N     2.3338444    0.5861711   -5.2245973 
C     2.6660864    0.1088481   -3.9147639 
H     1.5046355    0.3709843   -5.8248065 
H     2.0495551   -0.5735416   -3.3360642 
