48
Energy =
C    -0.6105208    1.1966183    2.6449294 
C     0.6249601    0.8234137    3.0653372 
C    -1.1890201    0.5746913    1.5831972 
C    -0.5258783   -0.4170449    0.9477423 
C     0.7081940   -0.7956956    1.3644041 
C     1.2968053   -0.1736960    2.4248242 
H     1.0648546    1.3261682    3.9218107 
H    -0.9955839   -0.9032186    0.0995993 
H     1.2234801   -1.5961174    0.8384626 
H    -1.1366530    1.9917579    3.1623418 
C     2.6819669   -0.5919225    2.8843245 
C     3.8370578    0.0613565    2.0791618 
H     2.7687208   -1.6993927    2.8005062 
H     2.8142529   -0.3675948    3.9657629 
C     3.7336978   -0.2281790    0.5859989 
O    -2.4631093    0.9305338    1.1299439 
H    -2.8797305    1.7038566    1.6366425 
O     3.9116837   -1.5379238    0.1535557 
N     3.9501820    1.5104557    2.3506885 
H     4.7790920   -0.4475192    2.3948314 
H     3.2248977    1.8533105    3.0213655 
H     4.8775596    1.7165004    2.7913498 
N     3.1724778    0.7225877   -0.3352312 
C     4.2216980    1.6017974   -0.9037623 
H     2.4605570    1.2819226    0.1898681 
C     3.6743894    2.9658273   -1.3329253 
O     2.3162822    3.1363509   -1.5740019 
O     4.5277441    4.0522987   -1.5374849 
H     5.4854771    3.8284552   -1.3120963 
C     4.9029216    0.8816999   -2.0885430 
H     5.0013306    1.8232766   -0.1381307 
C     3.9150321    0.4835693   -3.1674933 
H     5.4086249   -0.0349669   -1.7117888 
H     5.7046014    1.5189772   -2.5192084 
C     3.5388700    1.2081408   -4.2345057 
C     3.9382830    2.4420199   -4.6381277 
C     3.3872485    2.9642730   -5.7712475 
C     2.4570138    2.2538214   -6.4780127 
C     2.0703973    1.0172461   -6.0543327 
C     2.6292911    0.5222478   -4.9300675 
H     4.6667235    3.0157473   -4.0737219 
H     3.6828800    3.9551248   -6.1076131 
H     2.0180871    2.6797347   -7.3766547 
H     1.3286613    0.4430862   -6.5988313 
N     2.3588528   -0.7314214   -4.3194377 
C     3.2268139   -0.6719759   -3.1789951 
H     1.7100427   -1.4928611   -4.6235744 
H     3.2951583   -1.4421168   -2.4126584 
