48
Energy =
C     5.5405105    2.5249736    4.3252177 
C     5.0343670    1.8675595    3.2514964 
C     4.8922712    2.4836423    5.5199235 
C     3.7396643    1.7849082    5.6309176 
C     3.2279734    1.1264110    4.5601757 
C     3.8755616    1.1613468    3.3633218 
H     5.5620892    1.9135807    2.3021707 
H     3.2314222    1.7620508    6.5886864 
H     2.2973693    0.5757456    4.6696960 
H     6.4638972    3.0852271    4.2252109 
C     3.3052754    0.4431507    2.1610379 
C     2.6310262    1.4163013    1.1659860 
H     2.5745414   -0.3385163    2.4708443 
H     4.1296995   -0.1065518    1.6538377 
C     2.3234357    0.7078104   -0.1408320 
O     5.3866362    3.1493451    6.6463673 
H     6.2492855    3.6561056    6.4797380 
O     1.4654531   -0.3858233   -0.1570259 
N     1.4060612    1.9902379    1.7456167 
H     3.3340632    2.2465001    0.9181297 
H     0.7494138    1.2231844    2.0278228 
H     1.6400283    2.5457238    2.6015639 
N     2.8318834    1.2092902   -1.3804373 
C     4.2806105    1.0973825   -1.6281986 
H     2.1613778    1.6274130   -2.0646890 
C     4.8623918    2.4530791   -2.0086341 
O     4.1780333    3.2656942   -2.9040766 
O     6.1011586    2.8798508   -1.5272391 
H     6.5503297    2.1911169   -0.9436160 
C     4.5298318    0.0702102   -2.7476287 
H     4.8097649    0.7571565   -0.7091369 
C     4.2004233   -1.3346509   -2.2936559 
H     5.6000706    0.1004117   -3.0538092 
H     3.9417281    0.3417031   -3.6516974 
C     3.0420216   -1.9938075   -2.4607585 
C     1.8985000   -1.6075879   -3.0831599 
C     0.8482146   -2.4776318   -3.1087234 
C     0.9550707   -3.7070666   -2.5196282 
C     2.1124129   -4.0730495   -1.8992145 
C     3.1369450   -3.1946574   -1.8865995 
H     1.8049250   -0.6275278   -3.5384018 
H    -0.0819121   -2.1876280   -3.5912348 
H     0.1113291   -4.3922070   -2.5389355 
H     2.2117973   -5.0417548   -1.4217555 
N     4.4153468   -3.3764462   -1.2932280 
C     5.0389088   -2.1225778   -1.5972571 
H     4.7938214   -4.2036044   -0.7771342 
H     6.0474505   -1.8497706   -1.2957588 
