48
 energy: -9.202424654298 gnorm: 0.000170893258 xtb: 6.6.0 (2ccbbd7)
C            3.48230994340285        3.97251008894328       -6.84107429817805
C            3.27775135064303        3.40495747344098       -5.60681459247973
C            2.40441657292633        4.43819228102682       -7.59473659820883
C            1.12174870088716        4.31341804078024       -7.06082213745163
C            0.92457431248622        3.74431731841395       -5.82531943193814
C            1.99963228012380        3.28417843240496       -5.07849144634127
H            4.11776779140105        3.04567502712245       -5.03567293960132
H            0.29145187334631        4.67128505027067       -7.64304654283637
H           -0.07126006778047        3.64816332693523       -5.42802378010243
H            4.47760634752082        4.06020645704294       -7.23873627905546
C            1.79568515455006        2.60105406748245       -3.76918214317447
C            1.91127469384117        1.08723517427345       -3.86734358177948
H            0.86085699075982        2.89595131372254       -3.29146795498299
H            2.72909047770742        2.94088236459036       -3.01938396208929
C            1.92847873785001        0.47406170214083       -2.48657779057873
O            2.57504220282402        5.00987835975310       -8.84117909491511
H            3.52799853674258        5.02475535562943       -9.07616569586113
O            0.92372033731902       -0.09054022119453       -2.10136879323414
N            0.84040445120831        0.48660660538436       -4.65158750827874
H            2.85072231841905        0.85095162233369       -4.38274287228382
H            0.03671798912735        0.35887012168189       -4.04228935623886
H            0.57367586153448        1.09220149542429       -5.41778548673691
N            3.03885970744388        0.58043905064516       -1.66631156473524
C            4.43451119944773        0.73472277371192       -2.12433411772190
H            2.96588383539355        0.16166196862434       -0.74079657113189
C            4.71436705064337        2.10288372878052       -2.70600423134051
O            5.74666596567868        2.29049405814431       -3.31396036118869
O            3.74161449710846        3.15941982802824       -2.49906380525643
H            4.12810251164584        4.05931612064722       -2.80372606059141
C            4.86378990451963       -0.39108645450861       -3.06951525865502
H            5.06767211666336        0.66276258301097       -1.22602404716204
C            4.64567079694974       -1.75971972042801       -2.51413461108538
H            5.91987175764037       -0.25689090258634       -3.32529261602119
H            4.33126182996035       -0.31122779507515       -4.01837354555670
C            5.63131473630015       -2.78193597552235       -2.36854539223094
C            7.01143819607963       -2.82652448485267       -2.63282665350364
C            7.68793660227430       -3.99038382079495       -2.39232140080661
C            7.02856353471052       -5.12473974877271       -1.89139445669543
C            5.68661603748719       -5.10451942916636       -1.62621192778564
C            4.97489888495673       -3.92232863909607       -1.86597169956555
H            7.51433222913513       -1.95683215866521       -3.01653423466923
H            8.74565542344618       -4.04058093160175       -2.59105363180266
H            7.59154983661721       -6.02629596641770       -1.71487633439102
H            5.17307892030308       -5.96874160788851       -1.24485022272524
N            3.63812042887716       -3.59941432473208       -1.71375889545288
C            3.44939439052346       -2.29984888583326       -2.10849097696272
H            2.91776581232066       -4.23683836211800       -1.36943921892093
H            2.49864439066780       -1.79002655082257       -2.09248069334880
