48
Energy =
C     3.4046179   -3.8668385   -3.8806317 
C     2.3166109   -3.3258212   -3.2759107 
C     3.8435072   -3.3718897   -5.0688744 
C     3.1837842   -2.3440410   -5.6490552 
C     2.0962551   -1.7986206   -5.0487392 
C     1.6576969   -2.2836852   -3.8547193 
H     1.9873711   -3.7220533   -2.3190054 
H     3.5435446   -1.9552289   -6.5953668 
H     1.5921613   -0.9594631   -5.5231728 
H     3.9273779   -4.6909200   -3.4078605 
C     0.4908614   -1.6307387   -3.1458914 
C     0.9601687   -0.5900266   -2.0981794 
H    -0.1193335   -2.4174983   -2.6517769 
H    -0.1849696   -1.1411633   -3.8838345 
C     1.6729714    0.6028159   -2.7374359 
O     4.9701207   -3.8968322   -5.7102600 
H     5.4132765   -4.6583942   -5.2087910 
O     1.1661161    1.1395115   -3.9161938 
N    -0.1890872   -0.1370029   -1.2990165 
H     1.6931038   -1.0705666   -1.4124737 
H    -0.8916364    0.3244083   -1.9284879 
H    -0.6605483   -0.9540398   -0.8450075 
N     2.5703567    1.4193766   -1.9596677 
C     4.0086056    1.0255438   -1.9336011 
H     2.1712075    1.5088420   -0.9969417 
C     4.8718833    2.2400496   -2.2832035 
O     5.5032888    2.3310993   -3.5189687 
O     5.0446105    3.2818729   -1.3720258 
H     4.4162350    3.1918469   -0.5889231 
C     4.3465169   -0.2066670   -2.8218726 
H     4.2828420    0.7578070   -0.8887281 
C     5.8041724   -0.6179352   -2.7464064 
H     4.0507793    0.0108299   -3.8705302 
H     3.7623840   -1.0796745   -2.4793687 
C     6.6955528   -0.6579937   -3.7530693 
C     6.5585059   -0.3180276   -5.0619924 
C     7.6322393   -0.4702743   -5.8885430 
C     8.8145938   -0.9553324   -5.4037998 
C     8.9310179   -1.2903591   -4.0880870 
C     7.8553888   -1.1294685   -3.2889420 
H     5.6281463    0.0767630   -5.4561785 
H     7.5462662   -0.2013437   -6.9385917 
H     9.6651045   -1.0729024   -6.0705038 
H     9.8617869   -1.6773887   -3.6880260 
N     7.7673473   -1.4306367   -1.9033867 
C     6.4056929   -1.0764729   -1.6334387 
H     8.4984366   -1.8156710   -1.2623323 
H     5.9249235   -1.1886489   -0.6651411 
