48
Energy =
C     0.3267661    4.9081563    1.3059762 
C    -0.1492932    3.8279969    0.6367996 
C     1.6511572    5.0013581    1.5987617 
C     2.4908919    4.0122249    1.2178948 
C     2.0197544    2.9294796    0.5494139 
C     0.6955314    2.8319626    0.2487207 
H    -1.2108185    3.7671333    0.4127606 
H     3.5458682    4.0996973    1.4556984 
H     2.7106169    2.1448041    0.2600107 
H    -0.3544988    5.6965626    1.6073169 
C     0.1654639    1.6276179   -0.5037897 
C    -0.3329845    1.9877517   -1.9217503 
H    -0.6742455    1.1892786    0.0790503 
H     0.9413461    0.8333803   -0.5785754 
C     0.7678224    2.5715605   -2.7950193 
O     2.1733169    6.0964591    2.2941954 
H     1.4888310    6.8115600    2.5155317 
O     0.7454499    3.9220781   -3.1212478 
N    -0.9478824    0.8028215   -2.5455217 
H    -1.1050921    2.7898452   -1.8496036 
H    -0.3174909   -0.0294994   -2.4603531 
H    -1.8376804    0.5664633   -2.0450132 
N     1.8018619    1.7415415   -3.3389253 
C     3.1938981    2.0910837   -2.9996876 
H     1.5239559    0.8852660   -3.8690154 
C     3.8296412    2.9853728   -4.0661503 
O     4.6174270    4.0593402   -3.6678380 
O     3.7266871    2.7011196   -5.4297141 
H     3.0856322    1.9415412   -5.5956455 
C     3.9838917    0.7833161   -2.7790307 
H     3.2205167    2.6874456   -2.0590633 
C     5.3582971    1.0418972   -2.1983038 
H     4.0693591    0.2171872   -3.7324476 
H     3.4171675    0.1300732   -2.0784384 
C     6.5002967    1.2505590   -2.8751034 
C     6.7340364    1.2597398   -4.2130426 
C     8.0028338    1.5059848   -4.6480861 
C     9.0089845    1.7342664   -3.7508395 
C     8.7520324    1.7185338   -2.4122438 
C     7.4883528    1.4735319   -2.0063791 
H     5.9384893    1.0849919   -4.9303625 
H     8.2127847    1.5271872   -5.7146966 
H    10.0164864    1.9341206   -4.1064508 
H     9.5379434    1.9016613   -1.6876352 
N     7.0125399    1.4184542   -0.6688199 
C     5.6238106    1.1384221   -0.8833941 
H     7.5404861    1.5435640    0.2250650 
H     4.8940810    1.0205358   -0.0876941 
