48
Energy =
C    -0.7133599    2.7191105    0.8780944 
C     0.0311950    3.5095101    0.0640228 
C    -1.9626696    2.3354958    0.5028464 
C    -2.4580778    2.7439413   -0.6867253 
C    -1.7190055    3.5341807   -1.5042252 
C    -0.4688628    3.9270420   -1.1326955 
H     1.0336293    3.7958089    0.3751217 
H    -3.4525085    2.4258709   -0.9787211 
H    -2.1312461    3.8424892   -2.4609744 
H    -0.3043986    2.3907011    1.8277108 
C     0.3689391    4.7917280   -2.0555047 
C     1.1827500    3.9589133   -3.0706099 
H     1.0659249    5.4192574   -1.4541693 
H    -0.2864310    5.5018749   -2.6044859 
C     2.2058255    3.0786028   -2.3658146 
O    -2.7562797    1.5227957    1.3184360 
H    -2.3109249    1.2514332    2.1884566 
O     3.0326828    3.6591523   -1.4075408 
N     0.2593493    3.1844823   -3.9186787 
H     1.7847907    4.6515242   -3.7098982 
H    -0.3296489    3.8484531   -4.4735931 
H     0.8194769    2.6651548   -4.6391223 
N     2.6251511    1.8452566   -2.9595434 
C     3.9112647    1.8597217   -3.6811844 
H     2.0244262    1.0016661   -2.8284445 
C     3.9050261    2.8982553   -4.7992270 
O     3.4306313    2.5614037   -6.0601801 
O     4.2962471    4.2171924   -4.5676842 
H     4.5656392    4.3681945   -3.6052920 
C     4.2142740    0.4484170   -4.2322340 
H     4.7232792    2.1520266   -2.9775923 
C     4.5082137   -0.5376981   -3.1238779 
H     5.0832738    0.4852065   -4.9269754 
H     3.3503615    0.0980507   -4.8416998 
C     5.6525736   -0.6485283   -2.4317898 
C     6.8122009    0.0479553   -2.5503817 
C     7.8422117   -0.2616330   -1.7113700 
C     7.6993787   -1.2512296   -0.7780280 
C     6.5254036   -1.9376500   -0.6783974 
C     5.5214839   -1.6129891   -1.5198885 
H     6.9270101    0.8330613   -3.2919913 
H     8.7814973    0.2814169   -1.7849947 
H     8.5246698   -1.4916554   -0.1124965 
H     6.3950033   -2.7247557    0.0563791 
N     4.2282406   -2.1976678   -1.5811460 
C     3.6349582   -1.4407377   -2.6444349 
H     3.8212884   -2.9710938   -1.0072419 
H     2.6176958   -1.5784151   -3.0031102 
