48
 energy: -9.201410694309 gnorm: 0.000294431167 xtb: 6.6.0 (2ccbbd7)
C            2.40242243063438        2.28147994622578        4.05619491472846
C            2.84739717538922        1.03663200878221        3.67886470489211
C            2.65479575468109        3.39837761320082        3.25889692327502
C            3.36494614219515        3.21566249680689        2.07281781474032
C            3.80452697982221        1.96796298128503        1.70398093333716
C            3.55551363428931        0.85876945451625        2.49973459044914
H            2.64248686128078        0.18165850298187        4.29998007994495
H            3.55592648451805        4.07409029294467        1.45363645102025
H            4.34714193720820        1.83750866281086        0.78380851988727
H            1.85149148698929        2.40556783911225        4.97122107241677
C            4.01329696437216       -0.50793280871222        2.08430290587662
C            2.85906426627601       -1.43828116746621        1.69649356832809
H            4.58998941716602       -0.95590924809165        2.89974595201964
H            4.71275936088919       -0.42503622340276        1.25079132231989
C            1.96783629703599       -0.87847797463409        0.60082011655379
O            2.22608148609824        4.66311386118425        3.61224590660661
H            1.72652730355885        4.62621007807696        4.45604365869251
O            0.84394009300339       -0.55085140150870        0.93310677616466
N            3.27565857425867       -2.81041926202181        1.42629108644229
H            2.19271416326243       -1.50769351271952        2.57382227959412
H            3.81005181853869       -2.87912303871514        0.57331377490749
H            3.85732872678952       -3.16530942815634        2.17519640381557
N            2.35483371719169       -0.74008901227832       -0.71845969420324
C            3.71171489428913       -0.82798943846465       -1.27627547361212
H            1.66340124198379       -0.38508314557966       -1.37223460770837
C            4.45359706095950        0.48892487286351       -1.14590035927679
O            5.40921157344877        0.48589511871324       -0.39766366415291
O            4.05831691817140        1.58676521928774       -1.83235957975280
H            3.11162334913658        1.63299366672083       -2.42927934570705
C            3.70069857820026       -1.29073887883744       -2.73302942699864
H            4.26666058521750       -1.56077750989576       -0.68131466313176
C            3.12220540890629       -0.26094951925834       -3.62474555552749
H            3.12892374258991       -2.21938723300967       -2.82497085473074
H            4.72246966156161       -1.51029701901149       -3.06002578796381
C            3.18642271214655       -0.18635920809788       -5.00178078233157
C            3.73909539368679       -1.07016077994381       -5.96332246108445
C            3.60859062344750       -0.76555229518018       -7.29040187371373
C            2.94250877138747        0.39518087537871       -7.71143580685477
C            2.40097833610610        1.28231533940510       -6.80602221413159
C            2.52517826375862        1.01721957067277       -5.44643385033932
H            4.24058889446593       -1.96476540850066       -5.64020869956495
H            4.02172085285227       -1.43162500895310       -8.02955925504709
H            2.85577825437803        0.59810490608730       -8.76583099749311
H            1.89780886975898        2.17575968244631       -7.12929796090450
N            2.08733151807747        1.72690035387247       -4.34356943968787
C            2.38831682581867        0.94463188230934       -3.15766317919124
H            1.22668761185696        2.28064348137065       -4.32720636588280
H            2.34666766967116        1.53889236307041       -2.07369712805985
