48
Energy =
C     3.2722029    2.3921332    5.9553593 
C     2.8539410    1.7882551    4.8145381 
C     4.5896070    2.6774551    6.1344267 
C     5.4801333    2.3569477    5.1682581 
C     5.0675924    1.7529676    4.0250699 
C     3.7506189    1.4613627    3.8429959 
H     1.7966952    1.5720953    4.6847926 
H     6.5277090    2.5918356    5.3222210 
H     5.7983565    1.5057959    3.2592841 
H     2.5500623    2.6474358    6.7231339 
C     3.2891225    0.8031019    2.5617816 
C     3.1886143    1.8081229    1.3896333 
H     2.3076602    0.2968263    2.7067689 
H     4.0053822   -0.0075576    2.2983658 
C     2.9569354    1.0928511    0.0731461 
O     5.0536211    3.2991845    7.2983306 
H     4.3256292    3.5075786    7.9728814 
O     2.1074557   -0.0081409    0.0070663 
N     2.1220023    2.7926907    1.6312649 
H     4.1621721    2.3418536    1.2789577 
H     1.2188901    2.3000056    1.8324514 
H     2.3601954    3.3777943    2.4661738 
N     3.4658263    1.6500030   -1.1403337 
C     4.5111532    0.8863217   -1.8457071 
H     3.1241553    2.5901269   -1.4486648 
C     5.4857271    1.7999350   -2.5850989 
O     5.0998114    3.0809017   -2.9624587 
O     6.7525658    1.3492649   -2.9601605 
H     6.9325902    0.4099956   -2.6375756 
C     3.8540673   -0.1349728   -2.7977464 
H     5.1212929    0.3227384   -1.1035457 
C     2.8707086    0.5096877   -3.7522626 
H     3.3147855   -0.8937996   -2.1873825 
H     4.6301035   -0.6929087   -3.3646797 
C     3.1322039    1.0302435   -4.9623720 
C     4.3011366    1.0983026   -5.6504956 
C     4.2982028    1.6957784   -6.8766297 
C     3.1404193    2.2089657   -7.3924904 
C     1.9785314    2.1297835   -6.6838753 
C     2.0069485    1.5348627   -5.4728406 
H     5.2254686    0.7026999   -5.2402465 
H     5.2241298    1.7717070   -7.4419269 
H     3.1477802    2.6882543   -8.3682566 
H     1.0526352    2.5371366   -7.0753802 
N     0.9175605    1.3606801   -4.5775380 
C     1.5656771    0.6944368   -3.4851422 
H    -0.0845475    1.6391061   -4.6877321 
H     1.0759898    0.4046796   -2.5557508 
