48
 energy: -9.279583645502 gnorm: 0.000399321466 xtb: 6.6.0 (2ccbbd7)
C            4.14558480495798       -4.21424282959648       -4.84056374201444
C            3.15392927537740       -3.33476600325978       -4.47740395132351
C            4.64906998561341       -5.13260245226981       -3.91923480767899
C            4.09710787134778       -5.15660665972735       -2.63864421959436
C            3.10042828068923       -4.27861741326517       -2.28531683124057
C            2.61987836738430       -3.34918454459996       -3.19610541454733
H            2.79435880201091       -2.60753507412863       -5.18534394436027
H            4.48071060712441       -5.87039483117712       -1.93183919622625
H            2.69276107526187       -4.29957171425673       -1.28934613661376
H            4.56019923030911       -4.18577587514937       -5.83224043837452
C            1.64887706070342       -2.28846592362437       -2.78101208236611
C            2.37308560435760       -1.04372995339137       -2.24657170319529
H            0.95811160055303       -2.66744901590709       -2.02266194593083
H            1.02360076306766       -2.00671588099138       -3.63498598907988
C            1.55267866292819        0.21172636425642       -2.43374005022277
O            5.68840436299812       -5.98758587087341       -4.23403840084719
H            5.92629304035788       -5.89357184695999       -5.18205111792012
O            0.34128624284837        0.12710533877409       -2.43302351655137
N            2.75456105738960       -1.17073232877585       -0.85028047544775
H            3.29834292784976       -0.93040044489014       -2.82374271004057
H            1.92277762636291       -1.14086597790078       -0.27632287102281
H            3.21795547725222       -2.05394607913181       -0.68246559264524
N            2.20223471977843        1.42300878846185       -2.56465738058172
C            3.62985750232502        1.58887303438127       -2.26435396001627
H            1.64497792152888        2.26443746408851       -2.43275035144596
C            3.92520049528919        3.00803747877763       -1.83210676035133
O            4.66373550558669        3.17403174509919       -0.88583240525586
O            3.37012728714007        3.98957800622586       -2.58172096710910
H            2.83497789324330        3.61082508911549       -3.31720027452209
C            4.54005277654338        1.21135846589434       -3.44174844918621
H            3.85115210118289        0.93842313027689       -1.40473209078449
C            5.93619119502042        0.90303935000273       -3.01166811249156
H            4.55619521530354        2.03903801712111       -4.15734921128350
H            4.12811743170250        0.36596205406156       -3.99742212570440
C            6.57354657966872       -0.37574863654256       -2.99284502344860
C            6.15857297432437       -1.66728032653685       -3.36212793771116
C            7.02194592430793       -2.71342801584472       -3.18800121916012
C            8.30418797095994       -2.51602596762947       -2.65332604534376
C            8.73180576316816       -1.27018845451890       -2.28499391280579
C            7.86091860152648       -0.18616359220914       -2.45274499188289
H            5.17563896433091       -1.82385624875828       -3.76534965656449
H            6.71356124292531       -3.70947701142532       -3.45974764523662
H            8.95925888662470       -3.36228146492562       -2.52801328111862
H            9.71002762074267       -1.10919546653137       -1.86863992041137
N            7.99418569148634        1.15765316542624       -2.15310077927743
C            6.82752018186344        1.80111508478486       -2.47927167656367
H            8.80617706586381        1.57764946810584       -1.69697337113844
H            6.62538368092029        2.84538797405226       -2.29560851444135
