48
 energy: -9.292956233102 gnorm: 0.000787067010 xtb: 6.6.0 (2ccbbd7)
C           -0.09634731313464        0.65688809501102        3.62873293027095
C            0.35721582460580       -0.03270042832559        2.53027628813890
C            0.56810810093578        0.55557536123893        4.85106718246529
C            1.69672169791964       -0.26039415966214        4.92208858250620
C            2.14220986348518       -0.94589875556825        3.81707773569278
C            1.47719557520017       -0.84708565953327        2.60301942527112
H           -0.14226954425571        0.07085923187745        1.58297048770300
H            2.21044098614594       -0.33679912687209        5.86366260044951
H            3.01906515143046       -1.56622419492564        3.88726513197062
H           -0.96403625229701        1.28756315769843        3.55379116851761
C            1.98548273429163       -1.57011485419711        1.39123724554729
C            2.58709117248359       -0.64193561792466        0.31320599702794
H            1.16682950852824       -2.14721864853398        0.94862748584693
H            2.73346235520177       -2.30429581185757        1.70900179379665
C            1.52497358341396       -0.09457450079995       -0.62325219312918
O            0.14442404590658        1.23835935288125        5.97504786111257
H           -0.65534573377747        1.76747158777123        5.76647504738961
O            0.35328808979729       -0.17538058198747       -0.31308733466690
N            3.33796340312434        0.45552891778860        0.91214921868389
H            3.27890220698244       -1.23343799426736       -0.30738684817459
H            2.69812598789083        0.98932109658128        1.48516812900804
H            4.04424424320774        0.08821268216939        1.53518003236869
N            1.90178643146677        0.49429982698572       -1.81237016214003
C            3.28109746864417        0.72820354088749       -2.24728616217041
H            1.19892916170403        0.96553021264655       -2.37680056484887
C            3.56443273548963        2.21770586302845       -2.20790057909000
O            3.54995771734448        2.85329136030431       -3.23868215615860
O            3.79888324373649        2.71847015361173       -0.97212742771047
H            3.66428742994891        1.99528449736232       -0.30386145199935
C            3.53788465516181        0.12304470060007       -3.63317995401288
H            3.95639526421165        0.23770253436308       -1.53547034812463
C            4.96817898235105       -0.23720901714747       -3.86905474932769
H            3.19820931623257        0.82799388649531       -4.39851974153604
H            2.91978076414325       -0.77304205657863       -3.75086300251406
C            6.05500714796054        0.64629199017030       -4.14757886924619
C            6.15111329171708        2.04184027895839       -4.28426855780987
C            7.36628512603500        2.59700252617442       -4.57100903322668
C            8.50982035658625        1.79753515067847       -4.72657060024729
C            8.44596104572868        0.43803810281514       -4.58903731652684
C            7.20875838853897       -0.14833200267381       -4.29300950726578
H            5.27938782940575        2.65062025317818       -4.12651294995115
H            7.45130405672989        3.66644071659557       -4.67120151702876
H            9.45351708829585        2.26556495070186       -4.95285743817870
H            9.31699337513507       -0.18234622134891       -4.70083571529330
N            6.83568198348536       -1.46447259051055       -4.08862371891323
C            5.48807567615327       -1.50786982992678       -3.83316732653224
H            7.47024315148098       -2.26357369557829       -4.13846846331464
H            4.92785514626444       -2.40795516932485       -3.63767572282740
