48
 energy: -9.286739745071 gnorm: 0.000731041632 xtb: 6.6.0 (2ccbbd7)
C           -3.69345650789672       -1.31725931696688       -0.12445920566378
C           -2.40314198372080       -1.22966160929367       -0.59102500848530
C           -3.94936661948854       -1.39333919563384        1.24495166332248
C           -2.86515600314870       -1.37493063759377        2.12181537349480
C           -1.57833723148889       -1.28571653160215        1.64737580023327
C           -1.32730195721083       -1.21820429029571        0.28504769477370
H           -2.21764956598145       -1.16760587584084       -1.64960122941753
H           -3.06224894908589       -1.43057629491086        3.17738731234253
H           -0.74977499030913       -1.26663778652546        2.33436525434900
H           -4.51950716933462       -1.32724196176719       -0.81267539428229
C            0.07373391493455       -1.08247510537560       -0.22230928230656
C            0.60029389982434        0.35289526516593       -0.15738393076349
H            0.13063031666986       -1.43452749310398       -1.25629002970629
H            0.73973234702696       -1.73917888119347        0.34760718090218
C            2.05687829943139        0.39731511442848       -0.55849139419947
O           -5.23378270591669       -1.48310596918298        1.74685159956927
H           -5.88279876409885       -1.48528892918735        1.01048906669984
O            2.81373872853309       -0.46346828842197       -0.15616431388980
N           -0.19715470936156        1.26219291624206       -0.96996025227411
H            0.54414889326020        0.70615661923373        0.88400588955012
H           -0.16879318604559        0.96711466001994       -1.93709279746343
H           -1.16550617098611        1.23989398400822       -0.67830905740342
N            2.47446286137391        1.42422262152676       -1.37072537684556
C            3.83111684081204        1.47308601137689       -1.89038454675664
H            1.80366708336378        2.04072904172910       -1.84587105799535
C            3.96805124997279        2.68378673473921       -2.78810156647912
O            3.27049446897874        2.70970555614509       -3.77874377242216
O            4.86398103024183        3.64122235728463       -2.43758150704463
H            5.30160925336730        3.42907834513730       -1.58472241429122
C            4.17545142203042        0.19072515626394       -2.64411854770504
H            4.50106493449470        1.57207180140166       -1.02619717788906
C            5.60556747912352        0.08509602642975       -3.05749997198925
H            3.53141972334097        0.12193537757628       -3.52569841092480
H            3.92077614445337       -0.66458544607972       -2.00972073258553
C            6.24105027624207        0.75158236027948       -4.14840584467816
C            5.78842042355927        1.68161037145384       -5.10062486245487
C            6.66349617796174        2.13270413791062       -6.04841950979118
C            7.99437288656883        1.68622666651938       -6.07919772615294
C            8.46186483679600        0.79162687722674       -5.15593109986246
C            7.58059099053130        0.31755599150240       -4.17595576830352
H            4.78536821870342        2.06509424091941       -5.03487112716536
H            6.33209186104573        2.85473050368731       -6.77624251259190
H            8.65891017997207        2.06254552781801       -6.83919371099775
H            9.48120781460696        0.44974670194983       -5.16724983280833
N            7.75331201641706       -0.56423022115816       -3.12398264182201
C            6.56126176039764       -0.69624312244710       -2.45646736665196
H            8.63086044601186       -1.03510635017692       -2.89631539921077
H            6.40165965492876       -1.32603474875129       -1.59603307179072
