48
Energy =
C    -1.0295158   -1.3140093   -4.6995857 
C    -0.7377539   -0.9002982   -3.4403408 
C    -1.8445425   -0.5679734   -5.4923271 
C    -2.3612650    0.5882889   -5.0183658 
C    -2.0712495    1.0072266   -3.7605816 
C    -1.2558611    0.2642881   -2.9626196 
H    -0.0802447   -1.5031017   -2.8197152 
H    -3.0092186    1.1743521   -5.6603570 
H    -2.4942617    1.9405084   -3.3997137 
H    -0.6072187   -2.2413439   -5.0710447 
C    -0.9221273    0.7324792   -1.5610417 
C     0.3985131    1.5376249   -1.4683060 
H    -0.8603974   -0.1482434   -0.8822432 
H    -1.7557020    1.3510887   -1.1605210 
C     1.6217859    0.7039952   -1.8220478 
O    -2.1668722   -0.9659102   -6.7943889 
H    -1.7319032   -1.8376085   -7.0756148 
O     2.0185681    0.5864577   -3.1527211 
N     0.3298107    2.7705828   -2.2695956 
H     0.5326934    1.8291345   -0.4011541 
H     0.2622727    2.5300621   -3.2880038 
H    -0.5299894    3.3106814   -2.0164138 
N     2.1463390   -0.2251420   -0.8574152 
C     3.3671335    0.2695744   -0.1702671 
H     2.3696737   -1.1063977   -1.3753059 
C     3.1012893    1.4881480    0.7194096 
O     2.9432967    1.3020971    2.0878241 
O     3.0002368    2.7852596    0.2120189 
H     3.1057874    2.8158447   -0.7915190 
C     4.5629548    0.4769994   -1.1430712 
H     3.6702707   -0.5184689    0.5563301 
C     5.0698326   -0.8319769   -1.7089142 
H     5.4039553    0.9746867   -0.6095925 
H     4.2893345    1.1599676   -1.9754710 
C     5.8307666   -1.7397423   -1.0770704 
C     6.3498823   -1.7189722    0.1777177 
C     7.0983024   -2.7834659    0.5868049 
C     7.3147073   -3.8398612   -0.2545553 
C     6.7841235   -3.8378973   -1.5105886 
C     6.0475152   -2.7733795   -1.8919027 
H     6.1809023   -0.8800976    0.8464240 
H     7.5254706   -2.7917446    1.5869698 
H     7.9125194   -4.6846552    0.0787383 
H     6.9460190   -4.6673041   -2.1907028 
N     5.4087427   -2.5753053   -3.1449617 
C     4.7968828   -1.2943291   -2.9418128 
H     5.3869745   -3.1955383   -3.9866936 
H     4.1931362   -0.7759424   -3.6838720 
