48
Energy =
C    -1.4089165    4.7332494    0.4627836 
C    -1.5397115    4.0930396   -0.7266360 
C    -0.4410029    5.6733942    0.6300512 
C     0.3880567    5.9688351   -0.3959706 
C     0.2618372    5.3325659   -1.5867706 
C    -0.7018564    4.3849680   -1.7607177 
H    -2.3173498    3.3428838   -0.8442032 
H     1.1543286    6.7228510   -0.2533633 
H     0.9353282    5.5936324   -2.3979534 
H    -2.0801306    4.4908992    1.2798972 
C    -0.8396916    3.6575306   -3.0853983 
C     0.0396324    2.3830091   -3.1917215 
H    -0.5846955    4.3515981   -3.9186198 
H    -1.9035063    3.3804186   -3.2539660 
C     1.5390813    2.6914038   -3.1665672 
O    -0.2778274    6.3492027    1.8431228 
H    -0.9413748    6.0769197    2.5602327 
O     1.9819734    3.7964400   -3.8840871 
N    -0.3598992    1.3888058   -2.1789176 
H    -0.1394909    1.9392588   -4.1971321 
H    -0.1609479    1.7514698   -1.2169627 
H    -1.3882760    1.2044116   -2.2477637 
N     2.4797745    1.7272215   -2.6322958 
C     3.9561156    1.8117437   -2.7830274 
H     2.0769643    0.8780018   -2.1753514 
C     4.4875194    2.9641296   -3.6499686 
O     4.6342289    2.7941456   -5.0248140 
O     4.8663581    4.1844210   -3.0837167 
H     4.5872914    4.2503852   -2.1169318 
C     4.4667521    0.4401995   -3.2827618 
H     4.3818552    1.9743430   -1.7689493 
C     5.9752390    0.3361680   -3.2094287 
H     4.1190781    0.2736007   -4.3280710 
H     4.0221807   -0.3789485   -2.6767662 
C     6.7071763    0.0512231   -2.1211655 
C     6.3084604   -0.2354864   -0.8552212 
C     7.2653941   -0.4838732    0.0844976 
C     8.5906338   -0.4401593   -0.2507409 
C     8.9670318   -0.1473768   -1.5281242 
C     8.0015572    0.0921575   -2.4401281 
H     5.2567186   -0.2674694   -0.5872577 
H     6.9732164   -0.7161920    1.1056127 
H     9.3474228   -0.6371364    0.5042719 
H    10.0135767   -0.1041090   -1.8097684 
N     8.1766804    0.4253011   -3.8097571 
C     6.8141555    0.5728361   -4.2335064 
H     9.0597418    0.5288628   -4.3600744 
H     6.5071035    0.8668665   -5.2364333 
