48
Energy =
C     1.1449180    5.1161986   -0.3427430 
C     1.2370098    3.8391829   -0.7920157 
C     0.5251069    5.3825163    0.8378132 
C     0.0034317    4.3673183    1.5622106 
C     0.0946614    3.0886628    1.1193719 
C     0.7117376    2.8150061   -0.0638540 
H     1.7390454    3.6459824   -1.7353378 
H    -0.4853387    4.5918629    2.5034859 
H    -0.3257957    2.2876577    1.7209572 
H     1.5708178    5.9232421   -0.9293629 
C     0.8306654    1.3846198   -0.5519582 
C     2.1859483    0.7264201   -0.1890306 
H     0.6784743    1.3543741   -1.6525683 
H     0.0054386    0.7686631   -0.1301593 
C     3.3644354    1.3765471   -0.9070369 
O     0.4091217    6.6872625    1.3285501 
H     0.8459311    7.3893711    0.7405773 
O     4.3693627    2.0216389   -0.1943451 
N     2.3737624    0.6821622    1.2712095 
H     2.1692808   -0.3219390   -0.5510483 
H     2.5462243    1.6485084    1.6396972 
H     1.5145079    0.3104855    1.7378777 
N     3.4933434    1.2781164   -2.3326643 
C     4.6350303    0.5022729   -2.8507247 
H     2.7389287    1.6488856   -2.9507117 
C     5.5975325    1.4145555   -3.6057576 
O     5.6365725    1.3917307   -4.9960606 
O     6.4431001    2.2937719   -2.9321490 
H     6.2458058    2.3208523   -1.9401770 
C     4.1183282   -0.6495415   -3.7440228 
H     5.2392856    0.0656717   -2.0196519 
C     3.1894148   -1.5803639   -2.9983871 
H     4.9845823   -1.2373570   -4.1240514 
H     3.6173525   -0.2354862   -4.6462874 
C     1.8457600   -1.5832627   -3.0302650 
C     0.9850740   -0.7950948   -3.7260458 
C    -0.3539990   -0.9845018   -3.5503667 
C    -0.8090429   -1.9454486   -2.6909834 
C     0.0723410   -2.7248055   -2.0028769 
C     1.3921212   -2.5224091   -2.1973701 
H     1.3389207   -0.0259504   -4.4049027 
H    -1.0639426   -0.3670592   -4.0961484 
H    -1.8784394   -2.0890523   -2.5558022 
H    -0.2722289   -3.4884291   -1.3134745 
N     2.4660607   -3.1974910   -1.5584422 
C     3.5945454   -2.5243135   -2.1310372 
H     2.4402816   -3.9722732   -0.8556600 
H     4.6313382   -2.7401312   -1.8809435 
