48
 energy: -9.082883575033 gnorm: 0.000708209431 xtb: 6.6.0 (2ccbbd7)
C           -4.16385776475148        1.45511700425418       -2.95815311537768
C           -2.82214879663471        1.75652929874938       -2.94988582664142
C           -4.97652530107235        1.80301205131821       -1.87855551080501
C           -4.39217979707180        2.46300359703327       -0.79790403288963
C           -3.05017911452352        2.76076828141795       -0.79708340633671
C           -2.24610310925164        2.41572395571452       -1.87396286901675
H           -2.20217186619867        1.47811198072687       -3.78477112673945
H           -5.01823693366343        2.73215730291515        0.03388199808653
H           -2.61149499101873        3.26616894767364        0.04611021851697
H           -4.59974518408706        0.94403841417529       -3.79776296554528
C           -0.77671641453957        2.69927543707917       -1.85626428500877
C            0.07334390799487        1.45300067846131       -1.58858110196497
H           -0.54934679315345        3.44629057336208       -1.08953614311810
H           -0.47687262216552        3.15597616588315       -2.80537249904958
C            1.51681591269522        1.80868091680121       -1.59118239254108
O           -6.32749148878603        1.51053123660494       -1.85338294152409
H           -6.58745722035261        1.05615600433537       -2.68396982701365
O            1.97875647685774        2.89756233995720       -0.90339013955551
N           -0.27703442687844        0.80381837322294       -0.33155087857197
H           -0.09830360041829        0.72059669187080       -2.39276238756143
H            0.00799400087700        1.40140432710554        0.43316890178187
H           -1.27910257083570        0.67912593827881       -0.26420350841407
N            2.48704296406934        1.04948773577066       -2.28897774560926
C            3.86410459337054        1.35433004277106       -1.90404558993598
H            2.41715326646950        1.09116947201182       -3.30304312653871
C            4.07182413958009        2.83447210501095       -2.08448692232692
O            3.07838334047385        3.61438420298312       -1.62915399367092
O            5.19109106185705        3.35565690970981       -2.69544299112882
H            5.81843881407056        2.65058027458467       -2.96361990525287
C            4.87546489892717        0.45655472286942       -2.63081388789663
H            3.92772359717737        1.14779799211807       -0.82521954977843
C            4.66086914524701       -1.00169765680525       -2.38250593090215
H            5.89259059051714        0.71519260859484       -2.32053333831664
H            4.81819944368032        0.64854932473378       -3.70611427759514
C            5.62941237742270       -2.03814748948080       -2.53764555591049
C            6.98431676261540       -2.03211661411562       -2.91255185934269
C            7.65494343018105       -3.22292162905980       -2.96678617800512
C            7.01354952036711       -4.43362830981857       -2.65667937348208
C            5.69564939728503       -4.46398555352899       -2.29003604994232
C            4.98993017048905       -3.25552149582235       -2.22802710772669
H            7.47123360946921       -1.10297614445788       -3.15001739502332
H            8.69384236936642       -3.23503619274152       -3.25212930521881
H            7.57160005282381       -5.35385239371955       -2.70953780185276
H            5.19653029241503       -5.38618941542672       -2.05211955465556
N            3.67530656567941       -2.96677435020368       -1.90383688765652
C            3.49004732730356       -1.61088990509054       -2.00709366874639
H            2.97119629523542       -3.65886588623145       -1.64111056900693
H            2.56570013879464       -1.09626772466167       -1.81417342926776
