48
Energy =
C     0.7180445   -4.9003640   -1.5624947 
C     1.0616874   -3.5881131   -1.5128280 
C     0.1859957   -5.4264018   -2.6967883 
C    -0.0048950   -4.6476477   -3.7796743 
C     0.3322650   -3.3516915   -3.7365694 
C     0.8730997   -2.8013817   -2.6100969 
H     1.4908048   -3.1802261   -0.5949735 
H    -0.4371466   -5.0547555   -4.6813074 
H     0.1496075   -2.6367218   -4.6144823 
H     0.8715457   -5.5347608   -0.6866212 
C     1.2599513   -1.3250051   -2.5946179 
C    -0.0896587   -0.2337642   -2.5233714 
H     1.9179343   -1.1047106   -3.4613815 
H     1.8974333   -1.1313814   -1.6990250 
C     0.2743889    1.6030256   -1.8166518 
O    -0.1795989   -6.7629215   -2.7761127 
H    -0.0062012   -7.3157453   -1.9355294 
O    -0.0051585    0.4387256   -1.9541105 
N    -0.6131923   -0.1332990   -4.0254958 
H    -0.9985527   -1.1526424   -2.1206149 
H    -0.0409241   -0.7364178   -4.6830730 
H    -1.5464338   -0.6000083   -4.1135656 
N     1.6188369    2.0645172   -1.3956758 
C     2.8062078    1.7651422   -2.2177606 
H     1.5511819    3.0618616   -1.0793685 
C     3.9263970    1.1749187   -1.3735513 
O     4.4882763   -0.0304948   -1.7766195 
O     4.4342755    1.8185678   -0.2502372 
H     3.8882723    2.6293919   -0.0012054 
C     3.2510980    3.0409159   -2.9583587 
H     2.6070463    0.9667563   -2.9531144 
C     2.4237790    3.2852152   -4.1986684 
H     4.3214783    2.9288397   -3.2587993 
H     3.2172283    3.9349109   -2.2957021 
C     1.2232745    2.7519948   -4.5191792 
C     0.3666060    2.0120586   -3.7609649 
C    -0.7670168    1.2764837   -4.4381258 
C    -0.8363009    1.5241708   -5.9481369 
C     0.0149533    2.3836326   -6.5407740 
C     0.9992687    2.9682015   -5.8264128 
H     0.2124926    1.1350418   -0.1802339 
H    -1.7135491    1.6788999   -4.0010555 
H    -1.6202919    1.0512316   -6.5341641 
H    -0.0653827    2.5727620   -7.6073384 
N     2.0318750    3.7673206   -6.3871496 
C     2.9165300    3.9139556   -5.2764717 
H     2.1564831    4.1401625   -7.3623357 
H     3.9030606    4.3782446   -5.3372467 
