48
Energy =
C    -1.2678396   -3.7311586   -0.1411647 
C    -0.9382625   -2.7197344   -0.9830315 
C    -2.3345231   -3.6051900    0.6928736 
C    -3.0640589   -2.4660771    0.6771756 
C    -2.7371429   -1.4509084   -0.1625429 
C    -1.6714051   -1.5740362   -0.9988155 
H    -0.0836228   -2.8325423   -1.6433092 
H    -3.9122479   -2.3778861    1.3471194 
H    -3.3326590   -0.5418775   -0.1569848 
H    -0.6753449   -4.6394207   -0.1360435 
C    -1.2851524   -0.4419476   -1.9211306 
C    -0.0816386    0.3709738   -1.3817843 
H    -2.1465694    0.2361720   -2.1100013 
H    -1.0339013   -0.8637185   -2.9230849 
C     0.5244448    1.2799495   -2.4475947 
O    -2.7008725   -4.6276353    1.5746061 
H    -2.1099244   -5.4498817    1.5201698 
O     0.0166929    1.2532298   -3.7414030 
N    -0.4876046    1.1566626   -0.2092095 
H     0.7329069   -0.3275597   -1.0821044 
H    -1.2951138    1.7746012   -0.4624937 
H    -0.8073537    0.5131467    0.5516235 
N     1.5025814    2.2771657   -2.0896214 
C     2.6553203    2.3687175   -3.0230901 
H     1.8388065    2.0703650   -1.1192247 
C     2.2733350    3.0181090   -4.3516965 
O     3.1686471    3.8857075   -4.9652571 
O     1.0906486    2.6972072   -5.0039243 
H     0.5562110    1.9762526   -4.3737463 
C     3.3564818    1.0018381   -3.2424926 
H     3.3966843    3.0773692   -2.5878981 
C     3.8419985    0.3732670   -1.9510228 
H     4.2398907    1.1451555   -3.9045099 
H     2.6738143    0.3164848   -3.7909551 
C     3.5964382   -0.8743238   -1.5106969 
C     2.8607871   -1.8734624   -2.0676413 
C     2.7857785   -3.0660268   -1.4121228 
C     3.4316850   -3.2430399   -0.2209277 
C     4.1636405   -2.2290413    0.3200300 
C     4.2276086   -1.0587622   -0.3488207 
H     2.3387827   -1.7478960   -3.0097969 
H     2.2133054   -3.8826951   -1.8438011 
H     3.3672640   -4.1987687    0.2931610 
H     4.6890584   -2.3555509    1.2604349 
N     4.9488303    0.1045194    0.0303675 
C     4.6573917    0.9783309   -1.0667099 
H     5.5314213    0.2736373    0.8829040 
H     5.0651606    1.9814870   -1.1723780 
