48
Energy =
C    -2.7969025    1.6997017   -3.3207217 
C    -1.9462281    0.8349499   -3.9296944 
C    -3.2029735    1.4734641   -2.0424886 
C    -2.7519174    0.3839978   -1.3809073 
C    -1.9007423   -0.4830769   -1.9842033 
C    -1.4984923   -0.2665162   -3.2670917 
H    -1.6208233    1.0347935   -4.9475672 
H    -3.0759528    0.2195575   -0.3592541 
H    -1.5324265   -1.3435121   -1.4299806 
H    -3.1471689    2.5751539   -3.8569494 
C    -0.5195489   -1.2105746   -3.9314911 
C     0.9343848   -0.7077564   -3.8040990 
H    -0.7826823   -1.3177552   -5.0065189 
H    -0.6000603   -2.2281841   -3.4870674 
C     1.3629904   -0.5824839   -2.3494238 
O    -4.0795086    2.3431231   -1.3858322 
H    -4.3518690    3.1475036   -1.9404437 
O     1.3081294   -1.6975974   -1.5162120 
N     1.8377142   -1.5986180   -4.5521604 
H     1.0018815    0.3198458   -4.2374968 
H     1.7178513   -2.5850292   -4.2137384 
H     1.5790227   -1.5872646   -5.5674721 
N     1.4082011    0.7222371   -1.7549811 
C     2.7558603    1.3408688   -1.6169326 
H     0.9673575    0.6288835   -0.8102998 
C     2.6532169    2.8297184   -1.9448425 
O     3.1284954    3.3142904   -3.1590130 
O     2.0837198    3.7308466   -1.0463236 
H     1.6433055    3.2551486   -0.2730421 
C     3.8918015    0.6622677   -2.4545386 
H     3.0561213    1.3091152   -0.5443810 
C     4.5469549   -0.4926040   -1.7233336 
H     4.6975233    1.3976276   -2.6764429 
H     3.5248554    0.3519073   -3.4579917 
C     5.3839843   -0.4005130   -0.6762534 
C     5.8424428    0.6986319   -0.0227013 
C     6.7016144    0.5205353    1.0215523 
C     7.0887046   -0.7382240    1.3905365 
C     6.6203760   -1.8264930    0.7158666 
C     5.7703842   -1.6241978   -0.3125671 
H     5.5414680    1.7002179   -0.3169658 
H     7.0819379    1.3843526    1.5621907 
H     7.7745511   -0.8723079    2.2237616 
H     6.9199854   -2.8318958    0.9928283 
N     5.1816713   -2.6109856   -1.1460166 
C     4.4071777   -1.7935498   -2.0346031 
H     5.2911752   -3.6512399   -1.1287887 
H     3.7932453   -2.1821499   -2.8423907 
