48
Energy =
C     1.1240370    0.4933055    3.7503381 
C     1.9829557    1.1197121    2.9066291 
C    -0.0783596    1.0559665    4.0438231 
C    -0.4125401    2.2432941    3.4912748 
C     0.4416759    2.8735334    2.6469623 
C     1.6469540    2.3138602    2.3457078 
H     2.9408314    0.6592535    2.6919983 
H    -1.3736782    2.6823348    3.7336650 
H     0.1514706    3.8267897    2.2142015 
H     1.4020579   -0.4581834    4.1907135 
C     2.5975577    3.0111113    1.3923879 
C     2.4137330    2.5870004   -0.0897267 
H     3.6503703    2.8295475    1.7088073 
H     2.4644894    4.1131207    1.4727539 
C     2.8311637    1.1400728   -0.3525876 
O    -0.9859461    0.4378631    4.9099663 
H    -0.6653224   -0.4526369    5.2742809 
O     1.8976654    0.2020633   -0.7795483 
N     1.0416598    2.8694986   -0.5540853 
H     3.1054390    3.1960164   -0.7104978 
H     0.3621678    2.2135795   -0.0980646 
H     0.7633781    3.8464770   -0.3006330 
N     4.1537006    0.6738442   -0.0353338 
C     5.3025156    1.1091480   -0.8528913 
H     4.2781844    0.0902159    0.8199703 
C     5.7447947    2.5244164   -0.4892446 
O     5.4343778    3.5931141   -1.3229688 
O     6.3787939    2.7926391    0.7214592 
H     6.5530573    1.9498472    1.2488456 
C     4.9967736    0.9195260   -2.3572881 
H     6.1620212    0.4468451   -0.6020597 
C     6.2586449    0.9690775   -3.1914652 
H     4.2820513    1.6956586   -2.7121943 
H     4.4909014   -0.0586931   -2.5148214 
C     7.1016503   -0.0477567   -3.4300506 
C     7.0378160   -1.3434758   -3.0287276 
C     8.0411603   -2.1879288   -3.4038384 
C     9.0827320   -1.7293727   -4.1623780 
C     9.1276475   -0.4228362   -4.5496613 
C     8.1217291    0.3920105   -4.1683679 
H     6.2140598   -1.7081013   -2.4220709 
H     8.0132535   -3.2306161   -3.0967051 
H     9.8795340   -2.4082266   -4.4556978 
H     9.9489305   -0.0414958   -5.1467900 
N     7.9852796    1.7776081   -4.4491008 
C     6.7558106    2.0757191   -3.7722723 
H     8.6100124    2.4075394   -5.0026927 
H     6.3089099    3.0675362   -3.7103325 
