48
Energy =
C     4.3181131   -3.0755755    3.3827410 
C     4.1765896   -2.3581354    2.2396769 
C     3.8022169   -2.6085501    4.5511068 
C     3.1479094   -1.4249429    4.5671048 
C     3.0036293   -0.7032035    3.4270172 
C     3.5203101   -1.1652119    2.2557164 
H     4.5930718   -2.7445956    1.3136611 
H     2.7405280   -1.0631941    5.5050269 
H     2.4725163    0.2449614    3.4598413 
H     4.8442087   -4.0236803    3.3605102 
C     3.3424891   -0.3721758    0.9809411 
C     1.9159709   -0.5104656    0.4020017 
H     4.0904965   -0.6845811    0.2218298 
H     3.5553042    0.7012585    1.1938477 
C     1.7285028    0.4016446   -0.7943725 
O     3.9284492   -3.3242200    5.7459272 
H     4.4388720   -4.1955937    5.6544754 
O     1.1603127    1.6546408   -0.6136988 
N     1.6152359   -1.9127908    0.0589656 
H     1.1788326   -0.1471408    1.1586618 
H     2.4366384   -2.3497611   -0.4207120 
H     1.4626972   -2.4563606    0.9415283 
N     2.2242951    0.0392419   -2.0877954 
C     3.4073660    0.7682077   -2.5841008 
H     1.7719921   -0.7584034   -2.5830906 
C     3.0180072    2.0092471   -3.3797066 
O     3.7953251    3.1543607   -3.2548655 
O     1.9885085    1.9992200   -4.3223480 
H     1.4600524    1.1424125   -4.2883025 
C     4.2854354   -0.1716378   -3.4386960 
H     4.0178930    1.1423633   -1.7288561 
C     4.8971439   -1.2742720   -2.6043750 
H     5.1145024    0.4151372   -3.8989729 
H     3.6975686   -0.5859230   -4.2854151 
C     4.4655078   -2.5403340   -2.4799747 
C     3.4241528   -3.1729787   -3.0795876 
C     3.1809132   -4.4751299   -2.7534959 
C     3.9744831   -5.1195764   -1.8453560 
C     5.0181412   -4.4668650   -1.2601935 
C     5.2390138   -3.1799704   -1.6002807 
H     2.7944085   -2.6674052   -3.8036724 
H     2.3531433   -5.0044536   -3.2203286 
H     3.7756799   -6.1586235   -1.5924314 
H     5.6599709   -4.9638988   -0.5401868 
N     6.2534449   -2.3234666   -1.0968634 
C     5.9600821   -1.1081929   -1.7981861 
H     7.0017450   -2.5179844   -0.3912615 
H     6.5120568   -0.1772225   -1.6760835 
