48
Energy =
C     1.4120481   -1.5461978   -4.5628968 
C     0.8208395   -1.5199987   -3.3414641 
C     1.5046513   -0.4089239   -5.3013767 
C     0.9708730    0.7392007   -4.8279448 
C     0.3576965    0.7651539   -3.6184713 
C     0.3108516   -0.3564048   -2.8445448 
H     0.7672638   -2.4383971   -2.7632233 
H     1.0440097    1.6422000   -5.4239426 
H    -0.0679118    1.6999499   -3.2721838 
H     1.8267204   -2.4753812   -4.9383586 
C    -0.3654921   -0.3557494   -1.4801307 
C     0.0055692    0.8087638   -0.5048377 
H    -0.1309726   -1.3075860   -0.9543949 
H    -1.4622404   -0.3833346   -1.6550018 
C     1.3462228    1.4851420   -0.7841639 
O     2.1538682   -0.3933763   -6.5405434 
H     2.4740310   -1.3049432   -6.8485481 
O     1.3864456    2.6404237   -1.2348688 
N    -1.0926274    1.7868349   -0.4263740 
H     0.1244400    0.3766058    0.5140738 
H    -1.2261981    2.2404535   -1.3600833 
H    -1.9867468    1.3095272   -0.1686652 
N     2.5864582    0.7881689   -0.5548209 
C     3.6981403    1.1974988   -1.4365002 
H     2.6641280    0.0413026    0.1708210 
C     3.2956763    2.4401387   -2.2436673 
O     4.0482683    2.8669002   -3.3326169 
O     2.2942382    3.0873267   -1.9080490 
H     2.1312173    3.2387211   -0.9333287 
C     4.0694041   -0.0094545   -2.3199482 
H     4.5671169    1.4966327   -0.8119139 
C     5.3680153    0.1802261   -3.0714358 
H     3.2464567   -0.1897854   -3.0361845 
H     4.1454722   -0.9248520   -1.6945488 
C     6.6069653    0.0358046   -2.5784049 
C     7.0103378   -0.3075539   -1.3282753 
C     8.3490031   -0.3834759   -1.0779859 
C     9.2532900   -0.1178806   -2.0692029 
C     8.8241315    0.2251226   -3.3171826 
C     7.4949196    0.2924044   -3.5401788 
H     6.2927295   -0.5159968   -0.5402485 
H     8.6990601   -0.6545449   -0.0849147 
H    10.3186303   -0.1782603   -1.8613668 
H     9.5276499    0.4416933   -4.1139234 
N     6.8438731    0.6313383   -4.7562698 
C     5.4655935    0.5393969   -4.3647661 
H     7.2547204    0.8697297   -5.6879119 
H     4.6172180    0.7778488   -5.0095497 
