48
Energy =
C     0.6295731   -1.3616628   -5.5568247 
C     0.5326879   -0.0088061   -5.5136936 
C     0.1928583   -2.1119950   -4.5101326 
C    -0.3426092   -1.5022958   -3.4285693 
C    -0.4413368   -0.1498257   -3.3799376 
C     0.0001436    0.6067265   -4.4222365 
H     0.8901845    0.5766872   -6.3565523 
H    -0.6897001   -2.1118056   -2.6015305 
H    -0.8695090    0.3222761   -2.4982991 
H     1.0593456   -1.8409226   -6.4298437 
C    -0.0801986    2.1180882   -4.3559871 
C     1.1611597    2.7732155   -3.6892780 
H    -0.9932980    2.4125369   -3.7893601 
H    -0.2193742    2.5361933   -5.3771018 
C     1.3644643    2.3013772   -2.2666890 
O     0.2851840   -3.5075047   -4.5191433 
H     0.6832060   -3.8858904   -5.3716058 
O     0.4281050    2.6294976   -1.2940199 
N     2.3788896    2.5825537   -4.5059075 
H     0.9712118    3.8676678   -3.5910858 
H     2.5804336    1.5567212   -4.5742532 
H     2.1492109    2.8340453   -5.4980839 
N     2.3186943    1.2745671   -1.9854511 
C     3.7566280    1.5914113   -2.1110457 
H     1.9593488    0.3227726   -1.7512670 
C     4.0826065    2.8847886   -2.9083270 
O     3.4140382    3.2881484   -4.1015398 
O     5.1293704    3.7082005   -2.4833858 
H     5.6256843    3.3363970   -1.6881213 
C     4.4891764    0.3535615   -2.6773778 
H     4.1294558    1.7608154   -1.0773669 
C     5.9925532    0.5192844   -2.6509736 
H     4.1457532    0.1321476   -3.7094649 
H     4.2230721   -0.5401338   -2.0700391 
C     6.7708463    1.0101673   -3.6295712 
C     6.4391318    1.4525056   -4.8701002 
C     7.4329717    1.9197111   -5.6784239 
C     8.7284787    1.9381962   -5.2410746 
C     9.0377470    1.4919161   -3.9905724 
C     8.0368909    1.0342212   -3.2093458 
H     5.4101617    1.4534066   -5.2174183 
H     7.1909548    2.2877145   -6.6724595 
H     9.5135090    2.3173288   -5.8904076 
H    10.0590514    1.5067776   -3.6257708 
N     8.1411832    0.5436765   -1.8797588 
C     6.7713586    0.2375405   -1.5916876 
H     8.9893641    0.4373399   -1.2771860 
H     6.4178089   -0.1572489   -0.6422196 
