48
Energy =
C     0.4930590    0.2416955    4.6251606 
C     0.3590108    0.0348586    3.2891474 
C     1.0230290   -0.7275255    5.4166819 
C     1.4149672   -1.8984011    4.8668622 
C     1.2855530   -2.1095775    3.5327132 
C     0.7586022   -1.1415801    2.7312330 
H    -0.0705218    0.8188962    2.6696707 
H     1.8350160   -2.6642301    5.5100236 
H     1.6088183   -3.0583768    3.1131638 
H     0.1765753    1.1842497    5.0598983 
C     0.6265142   -1.3803072    1.2361389 
C     1.8334485   -0.8899301    0.3807343 
H    -0.3107482   -0.9080996    0.8629500 
H     0.4899842   -2.4697998    1.0561331 
C     1.7724339    0.5950225    0.0073589 
O     1.1744353   -0.5471159    6.7947510 
H     0.8698627    0.3603897    7.1302148 
O     0.8800948    1.4392541    0.6510377 
N     3.1175322   -1.2394364    1.0126444 
H     1.7684945   -1.4272993   -0.5932825 
H     3.2279406   -0.7182113    1.9160862 
H     3.1398170   -2.2640743    1.2258368 
N     2.3781774    1.0864302   -1.1998207 
C     3.8625662    1.1350046   -1.1327176 
H     1.9995350    0.5284059   -1.9933392 
C     4.3439475    2.5834741   -1.0161925 
O     5.4122235    3.0264537   -1.7899243 
O     3.8020053    3.4644378   -0.0809847 
H     2.9820345    3.0798337    0.3686586 
C     4.4912504    0.4254255   -2.3653855 
H     4.2644617    0.6496065   -0.2143477 
C     4.1690884   -1.0533814   -2.4157064 
H     5.6002133    0.5273372   -2.3255231 
H     4.1784747    0.9429410   -3.2978157 
C     3.2990699   -1.6733355   -3.2320829 
C     2.5086903   -1.1689440   -4.2161203 
C     1.6925961   -2.0249287   -4.8955009 
C     1.6776685   -3.3566855   -4.5869481 
C     2.4797172   -3.8413904   -3.5974311 
C     3.2789823   -2.9756067   -2.9402281 
H     2.5159615   -0.1135041   -4.4692725 
H     1.0521335   -1.6467231   -5.6891911 
H     1.0259275   -4.0328241   -5.1349436 
H     2.4814709   -4.8955203   -3.3413579 
N     4.1751033   -3.2736626   -1.8804460 
C     4.7108625   -1.9742349   -1.5999280 
H     4.3793386   -4.1903581   -1.4205887 
H     5.4367625   -1.7638797   -0.8172255 
