48
Energy =
C     0.1518198   -4.0294159    1.8311085 
C    -0.2025342   -3.2961719    0.7426410 
C     1.2214220   -3.6590390    2.5888597 
C     1.9277890   -2.5559609    2.2531866 
C     1.5680589   -1.8278680    1.1693916 
C     0.5004375   -2.1787616    0.4117329 
H    -1.0468343   -3.6149321    0.1371491 
H     2.7834735   -2.2678851    2.8530792 
H     2.1324343   -0.8667181    0.7930749 
H    -0.4165380   -4.9166757    2.0885266 
C     0.1625759   -1.3908438   -0.8490531 
C     0.4607009    0.1381197   -0.7793092 
H    -0.9180765   -1.5249115   -1.0737678 
H     0.7197470   -1.8322777   -1.6982852 
C     1.9604304    0.4689614   -0.6677602 
O     1.6173929   -4.3964607    3.7089546 
H     1.0299187   -5.2004977    3.9007227 
O     2.6710069    0.0330222    0.4531164 
N    -0.1555216    0.8094051   -1.9363455 
H     0.0050500    0.5479470    0.1532977 
H     0.2182543    0.3967698   -2.8250641 
H    -1.1926682    0.6625779   -1.9301590 
N     2.6044838    1.3063753   -1.6476052 
C     4.0794012    1.4166867   -1.4771662 
H     2.1341340    2.2378170   -1.5641860 
C     4.5769699    2.8171153   -1.8296293 
O     5.2492378    3.0486921   -3.0237779 
O     4.3593774    3.8926444   -0.9689292 
H     3.8373277    3.6242313   -0.1472590 
C     4.7759031    0.3413776   -2.3465971 
H     4.4012149    1.2847536   -0.4183681 
C     4.4579005   -1.0674882   -1.8912906 
H     5.8797674    0.4813506   -2.3066184 
H     4.4897566    0.4894139   -3.4098880 
C     3.6148284   -1.9392530   -2.4702609 
C     2.8619127   -1.8143115   -3.5947903 
C     2.0780859   -2.8656163   -3.9710582 
C     2.0498322   -4.0092559   -3.2219622 
C     2.8070876   -4.1096890   -2.0929890 
C     3.5813458   -3.0603706   -1.7463170 
H     2.8690452   -0.9040650   -4.1857543 
H     1.4691849   -2.7912932   -4.8690419 
H     1.4202347   -4.8415188   -3.5266766 
H     2.7933808   -5.0073974   -1.4841588 
N     4.4348119   -2.9635120   -0.6156527 
C     4.9640048   -1.6420668   -0.7850370 
H     4.6293492   -3.6688474    0.1318550 
H     5.6488932   -1.1617750   -0.0903177 
