48
Energy =
C    -0.0006494   -2.3368425    4.0659446 
C     0.1302188   -2.5558239    2.7334375 
C     0.9342587   -1.6130411    4.7331037 
C     1.9938315   -1.1142047    4.0618336 
C     2.1318972   -1.3322797    2.7300757 
C     1.1920250   -2.0454932    2.0433675 
H    -0.6274343   -3.1444294    2.2221619 
H     2.7321068   -0.5355922    4.6053144 
H     2.9914337   -0.9113541    2.2403855 
H    -0.8541604   -2.7452293    4.5964432 
C     1.3004915   -2.3673267    0.5537291 
C     2.1202797   -1.4246594   -0.3790948 
H     0.2663985   -2.3848182    0.1401399 
H     1.6791495   -3.4069380    0.4525011 
C     1.7235651    0.0524410   -0.3130263 
O     0.8340640   -1.3732223    6.1073165 
H    -0.0010739   -1.7603247    6.5330600 
O     0.8477763    0.5070932    0.6639350 
N     3.5784897   -1.6456006   -0.2607127 
H     1.8420972   -1.7267278   -1.4144761 
H     4.0303320   -0.9530873    0.3767741 
H     3.7970858   -2.6041974    0.0997813 
N     1.9558566    0.9056603   -1.4408764 
C     3.3298937    1.3779434   -1.6857178 
H     1.1573388    1.1203166   -2.0814906 
C     3.3443352    2.8785057   -1.9681145 
O     2.4096419    3.4186772   -2.8447546 
O     4.3313247    3.7169142   -1.4463878 
H     5.0104850    3.2188893   -0.8916964 
C     3.9146780    0.5797240   -2.8684700 
H     3.9548605    1.2146184   -0.7788985 
C     5.4065794    0.7890361   -2.9992889 
H     3.3934821    0.8512304   -3.8135824 
H     3.7242981   -0.5050104   -2.7153947 
C     6.0365095    1.7215726   -3.7325781 
C     5.5295049    2.6777664   -4.5529625 
C     6.3987571    3.5193580   -5.1821889 
C     7.7462601    3.3944600   -4.9859436 
C     8.2328840    2.4278310   -4.1569340 
C     7.3528290    1.6073448   -3.5454587 
H     4.4597900    2.7881352   -4.7053211 
H     6.0159020    4.2981919   -5.8376510 
H     8.4315342    4.0724352   -5.4885921 
H     9.2984603    2.3189105   -3.9861712 
N     7.6487676    0.5532315   -2.6397651 
C     6.3321959    0.0796105   -2.3303757 
H     8.5763476    0.2179197   -2.2922264 
H     6.1172440   -0.7353319   -1.6426618 
