48
 energy: -9.205262866751 gnorm: 0.000686266806 xtb: 6.6.0 (2ccbbd7)
C           -0.56047888227473       -4.07871608120672        1.66826907831611
C           -0.74682863498168       -3.19192569163592        0.63388570630498
C            0.71617457811267       -4.54290938249041        1.98687355078768
C            1.79342460528833       -4.07760228102646        1.23374075902154
C            1.59615507091694       -3.19113290131865        0.20333080173246
C            0.32656236025979       -2.73747080690894       -0.11983143601492
H           -1.73786417767337       -2.84355392690273        0.39879308987485
H            2.77976223239777       -4.42648847637171        1.48247263534634
H            2.43396376131900       -2.82167484020435       -0.36124112478623
H           -1.40109793628981       -4.42541258442010        2.24226586428570
C            0.11666788838721       -1.78031622357752       -1.25642485035945
C            0.70743891515402       -0.37866016338182       -1.01394225389310
H           -0.95541120833905       -1.69326847154786       -1.45861561677317
H            0.55730378688601       -2.19514981943237       -2.16830132386594
C            2.16286634773157       -0.29266715350913       -1.42214055300775
O            0.93625856446453       -5.43857864144641        3.01557452738928
H            0.08691444112713       -5.66510328487913        3.45202534029481
O            2.83837036775358       -1.29250461369369       -1.55112063866669
N           -0.04579761493880        0.65692589091115       -1.71331724523115
H            0.65016338989736       -0.15367246328267        0.06255568912893
H            0.06320867765137        0.53493687958384       -2.71138184774080
H           -1.03312727082242        0.59659233816068       -1.50030972187396
N            2.64668921334833        0.97190013314884       -1.64482096133142
C            4.00093710282573        1.22275229556259       -2.12083929598348
H            2.04332533891312        1.79222678719715       -1.51910147894683
C            4.14410327414453        2.66633922621125       -2.56454064504136
O            4.89370325732590        3.35791114205645       -1.90761775169669
O            3.46673151886195        3.10510819832513       -3.65272239941615
H            2.65148183047582        2.51198828536375       -4.14115283608080
C            4.41124432576654        0.28190694518800       -3.25258146603609
H            4.66370711935376        1.07298155303262       -1.25497843930724
C            3.56239232256890        0.49452185206657       -4.44440486582137
H            4.31737086130875       -0.75736412054266       -2.92097250352479
H            5.46071030304492        0.44771898562511       -3.51671582592610
C            3.72368605027119        0.00383903058552       -5.72443170102756
C            4.68198139940259       -0.88543410551703       -6.27319441262186
C            4.56604876266726       -1.25002834906239       -7.58645612611002
C            3.52464238357815       -0.76297054652458       -8.39073305162692
C            2.58089879116008        0.11090862638635       -7.89496182140953
C            2.67057110848096        0.51706216048530       -6.56811296966362
H            5.47353593195198       -1.26603551425187       -5.65280703435183
H            5.28605895682709       -1.92831688452918       -8.01323283113934
H            3.46397534577452       -1.07736869527506       -9.41929937148894
H            1.78831552805280        0.49030661940807       -8.51447488641595
N            1.87435157053676        1.36925166804457       -5.82767920230138
C            2.35082649430992        1.35452087919373       -4.45606917524583
H            0.87317873509433        1.51415977807717       -5.98429505230982
H            1.95706843646634        2.26438974013019       -3.72005278807704
