48
Energy =
C     3.0475444   -2.7968199    1.0760529 
C     1.8642688   -2.1380903    1.0324231 
C     4.1933315   -2.1745025    0.6988002 
C     4.1489980   -0.8954784    0.2699212 
C     2.9645709   -0.2238660    0.1685357 
C     1.8061062   -0.8470362    0.6086067 
H     0.9582791   -2.6559095    1.3365222 
H     5.0768311   -0.4029765    0.0076616 
H     3.0697731    1.0586671   -0.1117304 
H     3.0747001   -3.8250886    1.4190326 
C     0.4405089   -0.1826014    0.4914087 
C     0.4541240    1.3294167    0.1465864 
H    -0.1047360   -0.3208246    1.4504582 
H    -0.1304021   -0.7202681   -0.2967651 
C     1.3503719    1.6550615   -1.0451143 
O     5.4325503   -2.8243716    0.7476773 
H     5.3814547   -3.7764002    1.0927956 
O     1.2432237    2.7598256   -1.6027470 
N    -0.9221918    1.8014850   -0.0678505 
H     0.8927892    1.8842541    1.0068148 
H    -1.3112449    1.3672402   -0.9379254 
H    -1.5308433    1.5219185    0.7356286 
N     2.5415788    0.8482764   -1.2463452 
C     3.5091518    1.4180346   -2.2366696 
H     2.0817999    0.0395399   -1.7949427 
C     2.7907897    2.4630043   -3.0935560 
O     3.1571179    2.7068791   -4.4127350 
O     1.8723090    3.1118492   -2.5810175 
H     2.0076416    3.4011574   -1.6298658 
C     4.1680007    0.2873986   -3.0776242 
H     4.3043710    1.9758093   -1.6907579 
C     5.4919245    0.7127275   -3.6801200 
H     3.4625738   -0.0633155   -3.8608222 
H     4.3623677   -0.5967778   -2.4349573 
C     5.7702611    0.9483627   -4.9749373 
C     4.9701353    0.8826682   -6.0714749 
C     5.5124830    1.1682692   -7.2897947 
C     6.8324390    1.5071202   -7.3965103 
C     7.6183547    1.5643438   -6.2847201 
C     7.0585085    1.2809775   -5.0898315 
H     3.9185965    0.6255511   -5.9955078 
H     4.8887279    1.1319049   -8.1798167 
H     7.2559254    1.7351844   -8.3714859 
H     8.6675014    1.8315214   -6.3521234 
N     7.7025385    1.2754440   -3.8239495 
C     6.6187207    0.8951054   -2.9676681 
H     8.6980967    1.4889809   -3.5846812 
H     6.7050760    0.7600789   -1.8918769 
