48
Energy =
C     0.5432541   -4.4569675    1.8202127 
C     1.0296170   -3.3941847    1.1306716 
C    -0.6498594   -5.0091173    1.4729382 
C    -1.3482997   -4.4933189    0.4361807 
C    -0.8668717   -3.4305178   -0.2570540 
C     0.3253266   -2.8714703    0.0888523 
H     1.9865078   -2.9679171    1.4185925 
H    -2.2973523   -4.9443392    0.1681061 
H    -1.4413005   -3.0330002   -1.0898491 
H     1.1121982   -4.8647308    2.6486838 
C     0.8691548   -1.6983110   -0.6968244 
C     1.5178478   -2.1509014   -2.0257703 
H     1.6043488   -1.1245551   -0.0905796 
H     0.0337796   -0.9930818   -0.9085645 
C     1.8109113   -0.9688977   -2.9387766 
O    -1.1791759   -6.1049410    2.1624655 
H    -0.5955625   -6.4311925    2.9248711 
O     1.1277836   -0.8766385   -4.1456322 
N     2.7264401   -2.9690987   -1.7852346 
H     0.7707528   -2.7569128   -2.5968538 
H     3.1612245   -2.7515990   -0.8584303 
H     2.4401172   -3.9758439   -1.7225754 
N     2.5386671    0.1824323   -2.4857554 
C     3.9556391    0.0216297   -2.1066692 
H     2.0197741    1.0867303   -2.4072788 
C     4.5620068    1.3221976   -1.5857740 
O     4.0566061    2.5487947   -1.9993171 
O     5.6911039    1.3156353   -0.7664422 
H     5.9872427    0.3814450   -0.5242487 
C     4.7815957   -0.5721255   -3.2757060 
H     4.0101775   -0.6797244   -1.2502051 
C     4.6478534    0.2076168   -4.5740024 
H     4.4676923   -1.6293912   -3.4184883 
H     5.8565415   -0.6170721   -2.9952676 
C     4.1076095   -0.2230054   -5.7300037 
C     3.5302221   -1.4148560   -6.0407155 
C     3.0626882   -1.6002065   -7.3081156 
C     3.1813823   -0.6087209   -8.2408448 
C     3.7673894    0.5761407   -7.9115138 
C     4.2187957    0.7385127   -6.6502187 
H     3.4149860   -2.2067757   -5.3083964 
H     2.5846220   -2.5397968   -7.5745380 
H     2.8024424   -0.7643421   -9.2476041 
H     3.8691515    1.3732406   -8.6397964 
N     4.8660606    1.8834982   -6.1171822 
C     5.1154298    1.4559444   -4.7714133 
H     5.1083177    2.7861232   -6.5869011 
H     5.6235526    2.0620075   -4.0222633 
