48
Energy =
C    -1.3655554    1.9760542   -7.0636409 
C    -0.2200962    1.4356026   -6.5764519 
C    -1.8225327    3.1613880   -6.5780088 
C    -1.1294652    3.7980829   -5.6062551 
C     0.0182658    3.2613948   -5.1163010 
C     0.4812233    2.0806158   -5.6046131 
H     0.1295201    0.4842610   -6.9714000 
H    -1.5115074    4.7406783   -5.2269028 
H     0.5643693    3.7694583   -4.3228306 
H    -1.9156840    1.4562435   -7.8408217 
C     1.7456100    1.4767624   -5.0441301 
C     1.4665437    0.4869020   -3.8908165 
H     2.4405548    2.2690656   -4.6858467 
H     2.3040954    0.9706807   -5.8703212 
C     2.7343074   -0.2082773   -3.4011739 
O    -3.0003498    3.7448179   -7.0537339 
H    -3.4563291    3.2139782   -7.7883805 
O     2.5768783   -1.4419940   -2.7744005 
N     0.8013181    1.2143662   -2.7963757 
H     0.8095318   -0.3406946   -4.2574132 
H    -0.2165218    1.3044798   -3.0234877 
H     0.8314307    0.6292501   -1.9265276 
N     3.8960078    0.5720121   -3.0739950 
C     5.0841034    0.2477318   -3.9076658 
H     4.0978801    0.3847359   -2.0666206 
C     4.8819775    0.6181009   -5.3719246 
O     5.2766167    1.8776235   -5.8056070 
O     4.2039902   -0.2075600   -6.2760124 
H     3.9351139   -1.0972892   -5.8785787 
C     5.5848779   -1.2100012   -3.7127939 
H     5.9083352    0.9275745   -3.5939240 
C     6.1108547   -1.4531315   -2.3177860 
H     6.3904839   -1.4296292   -4.4491133 
H     4.7789069   -1.9395612   -3.9397755 
C     7.3011074   -1.0748194   -1.8285710 
C     8.3237107   -0.4213028   -2.4370630 
C     9.4425989   -0.1472219   -1.7067251 
C     9.5212502   -0.5260336   -0.3946985 
C     8.4809276   -1.1816064    0.1948938 
C     7.3851590   -1.4417412   -0.5488171 
H     8.2621141   -0.1212554   -3.4795610 
H    10.2759968    0.3749915   -2.1709973 
H    10.4166200   -0.3036669    0.1805006 
H     8.5264981   -1.4883496    1.2342492 
N     6.1988219   -2.1031069   -0.1302396 
C     5.4235276   -2.0655021   -1.3391958 
H     5.9599260   -2.5041803    0.8059555 
H     4.4122607   -2.4613147   -1.4529843 
