48
Energy =
C     4.1440299   -3.6186303    1.2915268 
C     3.8515457   -2.6129575    0.4288049 
C     3.2867567   -3.9230005    2.3024172 
C     2.1419874   -3.2168551    2.4432177 
C     1.8444006   -2.2093917    1.5838593 
C     2.6977926   -1.9029472    0.5685830 
H     4.5486399   -2.3809347   -0.3716503 
H     1.4681084   -3.4685978    3.2548197 
H     0.9214893   -1.6513777    1.7185067 
H     5.0657426   -4.1778490    1.1718163 
C     2.3819141   -0.7741710   -0.3877086 
C     3.2303880    0.4903671   -0.0971609 
H     1.2999495   -0.5123439   -0.3509807 
H     2.5711871   -1.1515964   -1.4138686 
C     3.1182942    1.5332718   -1.2206742 
O     3.5579518   -4.9532113    3.2085194 
H     4.4369963   -5.4295243    3.0392466 
O     2.4484348    2.7264437   -0.9841712 
N     2.8465614    1.0698652    1.2007159 
H     4.3016787    0.2082389   -0.0286886 
H     1.8331890    1.3381411    1.1938374 
H     2.9960233    0.3811062    1.9744613 
N     3.5269602    1.2548396   -2.5751251 
C     4.9836978    1.0233367   -2.7203263 
H     2.9509491    0.4611968   -2.9274475 
C     5.7727615    2.3330663   -2.5849200 
O     6.0392862    3.1083775   -3.7092350 
O     6.2592738    2.7655548   -1.3513771 
H     5.8938495    2.2259324   -0.5834703 
C     5.2484857    0.3415790   -4.0846200 
H     5.3610963    0.3295474   -1.9402168 
C     6.6809683   -0.1337561   -4.1987369 
H     5.0116031    1.0525984   -4.9112692 
H     4.5735670   -0.5300097   -4.2233205 
C     7.1851593   -1.2763044   -3.7070642 
C     6.5653686   -2.2852256   -3.0417322 
C     7.3165747   -3.3457581   -2.6277008 
C     8.6605413   -3.3799936   -2.8797300 
C     9.2611957   -2.3537911   -3.5474791 
C     8.4958560   -1.3175716   -3.9495089 
H     5.4989934   -2.2581868   -2.8417288 
H     6.8454242   -4.1685015   -2.0949971 
H     9.2536406   -4.2277827   -2.5453878 
H    10.3267127   -2.3622981   -3.7511509 
N     8.9219692   -0.1495998   -4.6362587 
C     7.6854166    0.5693569   -4.7512024 
H     9.8766419    0.1144483   -4.9723187 
H     7.5850649    1.5640122   -5.1861626 
