48
Energy =
C     2.1269230    4.8987526   -2.1697964 
C     1.1635761    3.9515608   -2.2943467 
C     2.2761498    5.5703194   -0.9971659 
C     1.4578646    5.2897571    0.0416591 
C     0.4990519    4.3375733   -0.0757826 
C     0.3515018    3.6533652   -1.2449264 
H     1.0534647    3.4257727   -3.2365373 
H     1.5856341    5.8336422    0.9703340 
H    -0.1427148    4.1217815    0.7739990 
H     2.7801194    5.1127259   -3.0102135 
C    -0.7023250    2.5714625   -1.3784194 
C    -0.2129435    1.1508322   -0.9990820 
H    -1.0868862    2.5532356   -2.4227265 
H    -1.5793306    2.8288625   -0.7450293 
C     0.8385909    0.5893198   -1.9534368 
O     3.2575993    6.5528417   -0.8329335 
H     3.8613963    6.6645683   -1.6414751 
O     0.4463087   -0.4431986   -2.7900448 
N     0.2106287    1.0830219    0.4116270 
H    -1.0878208    0.4684805   -1.1212849 
H     0.9844557    1.7600477    0.6015389 
H    -0.5912195    1.3499537    1.0298869 
N     2.2054178    1.0586056   -1.8901126 
C     3.2997102    0.6125579   -2.8083229 
H     2.5097983    0.8829337   -0.9054680 
C     4.0364776    1.8396123   -3.3321807 
O     5.2870995    2.1541895   -2.8153598 
O     3.5071314    2.6476304   -4.3399016 
H     2.5981743    2.3234362   -4.6319802 
C     2.9430267   -0.3483995   -3.9905171 
H     4.0705633    0.0992178   -2.1880040 
C     3.1050468   -1.8164488   -3.6291159 
H     3.6463139   -0.1723764   -4.8358954 
H     1.9563448   -0.1260614   -4.4423034 
C     4.2689015   -2.4505601   -3.3983015 
C     5.5407444   -1.9704007   -3.4145643 
C     6.5636054   -2.8336168   -3.1536064 
C     6.3062703   -4.1504335   -2.8910995 
C     5.0240927   -4.6128362   -2.8911825 
C     4.0288122   -3.7386702   -3.1483070 
H     5.7535010   -0.9273237   -3.6335180 
H     7.5896305   -2.4726243   -3.1575797 
H     7.1275662   -4.8325989   -2.6861516 
H     4.8032583   -5.6562282   -2.6929224 
N     2.6398628   -4.0192804   -3.2187717 
C     2.1137083   -2.7244558   -3.5443398 
H     2.1372336   -4.9261909   -3.0817076 
H     1.0612690   -2.5272938   -3.7321600 
