48
Energy =
C    -1.8714355    5.1024559   -4.8836430 
C    -1.3366727    4.3643182   -3.8778875 
C    -1.6040502    4.7881971   -6.1797211 
C    -0.8013955    3.7363007   -6.4604632 
C    -0.2645929    2.9944572   -5.4594509 
C    -0.5334599    3.3028430   -4.1604202 
H    -1.5565154    4.6291842   -2.8465194 
H    -0.5917658    3.4970388   -7.4973817 
H     0.3851318    2.1577472   -5.7072257 
H    -2.5120774    5.9457089   -4.6491055 
C     0.0822635    2.4947247   -3.0417859 
C     1.3147052    3.1944178   -2.4079324 
H     0.3732727    1.4841607   -3.4106066 
H    -0.6893204    2.3183254   -2.2567334 
C     1.8331378    2.3794435   -1.2507554 
O    -2.1383534    5.5288881   -7.2389926 
H    -2.7262212    6.3016680   -6.9464722 
O     1.1305520    2.3847129   -0.0526016 
N     2.3782617    3.4049201   -3.4091581 
H     1.0236321    4.1748258   -1.9620333 
H     2.5179056    2.5115459   -3.9384760 
H     1.9991649    4.0473113   -4.1464821 
N     2.7201804    1.2928711   -1.5181618 
C     4.1340013    1.6017374   -1.8169208 
H     2.3145009    0.3341107   -1.5851401 
C     4.4373624    3.0345862   -2.3296871 
O     3.4866512    3.9185882   -2.9182467 
O     5.7368487    3.5336990   -2.1977292 
H     6.3571974    2.8918256   -1.7283022 
C     4.7423865    0.5005059   -2.7231445 
H     4.6705932    1.5387379   -0.8451337 
C     4.0852624    0.4121018   -4.0832672 
H     4.6421724   -0.4829227   -2.2121767 
H     5.8348023    0.6633947   -2.8468088 
C     4.4130398    1.1004321   -5.1906066 
C     5.4000382    2.0106291   -5.3935682 
C     5.4958756    2.6015419   -6.6191707 
C     4.6133916    2.2790966   -7.6126888 
C     3.6285387    1.3647466   -7.3857889 
C     3.5561386    0.7924104   -6.1660998 
H     6.0943606    2.2811226   -4.6044953 
H     6.2733776    3.3390240   -6.8032535 
H     4.6937153    2.7573669   -8.5854713 
H     2.9160782    1.1025278   -8.1604110 
N     2.5944091   -0.1514375   -5.7185453 
C     3.0083156   -0.3441969   -4.3606717 
H     1.7901431   -0.5733286   -6.2375589 
H     2.5116810   -1.0092882   -3.6586360 
