48
Energy =
C    -0.0041640    3.2852333   -4.6837456 
C     0.7805370    2.8996450   -3.6455098 
C    -1.3048038    3.6178738   -4.4698994 
C    -1.8122774    3.5588054   -3.2177400 
C    -1.0321587    3.1729109   -2.1761410 
C     0.2734708    2.8476272   -2.3833721 
H     1.8130026    2.6156539   -3.8322263 
H    -2.8522749    3.8217359   -3.0612078 
H    -1.4603200    3.1253186   -1.1787604 
H     0.4106450    3.3190220   -5.6850184 
C     1.1396359    2.4021522   -1.2246692 
C     1.0531626    0.8755186   -0.9883423 
H     0.8176876    2.9412835   -0.3070819 
H     2.1961765    2.7074651   -1.3937410 
C     1.7786462    0.0831777   -2.0665871 
O    -2.1400819    4.0209233   -5.5172387 
H    -1.6826421    4.0328334   -6.4218472 
O     1.1586215   -0.1372495   -3.2898407 
N     1.5558885    0.5521464    0.3606160 
H    -0.0115932    0.5500841   -1.0666358 
H     2.4874552    1.0086035    0.5094360 
H     0.9039193    0.9526128    1.0762622 
N     3.0073666   -0.6014718   -1.7898025 
C     4.2081888   -0.2445854   -2.5680547 
H     3.0118481   -1.3166428   -1.0297498 
C     4.4155153    1.2665589   -2.6541923 
O     4.2972964    1.9265580   -3.8722957 
O     4.7248673    2.0162711   -1.5192477 
H     4.7660079    1.4390830   -0.6917976 
C     4.1656559   -0.9228260   -3.9553965 
H     5.1019173   -0.6266811   -2.0273159 
C     4.2165176   -2.4319771   -3.8375951 
H     5.0427515   -0.5903828   -4.5544212 
H     3.2676082   -0.5801511   -4.5141592 
C     3.2011464   -3.3069791   -3.9618700 
C     1.8918296   -3.1006266   -4.2581596 
C     1.0600755   -4.1810190   -4.3217221 
C     1.5436532   -5.4387843   -4.0949344 
C     2.8614667   -5.6251834   -3.8040068 
C     3.6635776   -4.5416264   -3.7452393 
H     1.5008509   -2.1070700   -4.4451183 
H     0.0056210   -4.0405130   -4.5525995 
H     0.8744260   -6.2948643   -4.1466901 
H     3.2614294   -6.6175774   -3.6223514 
N     5.0544028   -4.5241504   -3.4598786 
C     5.3324767   -3.1212117   -3.5376251 
H     5.6992320   -5.3213282   -3.2488054 
H     6.3125064   -2.6800753   -3.3663174 
