48
Energy =
C     0.9539168   -0.5602421   -6.2976585 
C     0.8330711    0.7180810   -5.8584639 
C     0.5134523   -1.5917469   -5.5288173 
C    -0.0498336   -1.3357351   -4.3265487 
C    -0.1728948   -0.0594791   -3.8824141 
C     0.2719917    0.9767978   -4.6452484 
H     1.1942671    1.5312190   -6.4825236 
H    -0.3996602   -2.1665505   -3.7237830 
H    -0.6235698    0.1255413   -2.9097211 
H     1.4059261   -0.7549152   -7.2641480 
C     0.1636032    2.3999425   -4.1371666 
C     1.3814649    2.8432145   -3.2799935 
H    -0.7639830    2.5028619   -3.5286990 
H     0.0351759    3.1000341   -4.9916642 
C     1.5706128    1.9705559   -2.0592175 
O     0.6301242   -2.9209388   -5.9481566 
H     1.0474022   -3.0259402   -6.8663462 
O     0.6077838    1.9692422   -1.0571250 
N     2.6157580    2.9199526   -4.0912349 
H     1.1700716    3.8562278   -2.8649849 
H     2.8424285    1.9615104   -4.4488720 
H     2.3954776    3.4431319   -4.9731959 
N     2.5523677    0.9317138   -2.0731722 
C     3.9790102    1.3139252   -2.0431381 
H     2.2217329   -0.0552356   -2.1521607 
C     4.2772163    2.7891225   -2.4266417 
O     3.6290605    3.4971487   -3.4802380 
O     5.2895564    3.4819168   -1.7565933 
H     5.7705622    2.9158830   -1.0744017 
C     4.7795666    0.3236523   -2.9181288 
H     4.3132118    1.1904127   -0.9899487 
C     6.2713216    0.4928612   -2.7362535 
H     4.5164022    0.4598240   -3.9894613 
H     4.4981251   -0.7215735   -2.6643499 
C     7.0286966   -0.0472449   -1.7689529 
C     6.6821404   -0.8839658   -0.7571835 
C     7.6523009   -1.2813907    0.1153570 
C     8.9377732   -0.8382319   -0.0319703 
C     9.2607720    0.0061980   -1.0525307 
C     8.2843067    0.3817085   -1.9048518 
H     5.6609884   -1.2323932   -0.6343401 
H     7.4019105   -1.9521276    0.9338970 
H     9.7048080   -1.1573331    0.6692957 
H    10.2737627    0.3728610   -1.1795072 
N     8.4019420    1.2653556   -3.0105000 
C     7.0502070    1.2896526   -3.4892717 
H     9.2468373    1.7604284   -3.3778657 
H     6.6969045    1.9092960   -4.3128925 
