48
 energy: -9.066249596649 gnorm: 0.000323328443 xtb: 6.6.0 (2ccbbd7)
C            0.89464481983945       -2.32019563792531       -2.38798393993075
C            1.60913446958673       -2.19590816628700       -1.21993684713946
C           -0.21801563295214       -1.51313189105973       -2.62896513508341
C           -0.58686470735960       -0.58634055528521       -1.65407295660713
C            0.13434869203827       -0.46749405974964       -0.49080327844798
C            1.24304504496833       -1.26723192426829       -0.25608832300396
H            2.46868668524873       -2.82024601948617       -1.04525284758626
H           -1.44336322903136        0.03683559560924       -1.83976567986095
H           -0.13831762550081        0.27003289521981        0.24523201626579
H            1.18641459978989       -3.04267726075609       -3.12907321153532
C            2.06201996396931       -1.08081903726977        0.98420218962012
C            2.91118915398435        0.19420877375695        0.94935550468494
H            2.70394616338634       -1.95337612983029        1.13976081267826
H            1.39888716422813       -1.03376860182281        1.85343917746175
C            2.02210684338597        1.41870164535747        0.95924641468764
O           -0.95038765060601       -1.60412689717442       -3.79744690556846
H           -0.57176426126027       -2.29848813346660       -4.37902017302709
O            1.19053279725334        1.49293255149940        1.84140361196321
N            3.82495879299568        0.27705465144787        2.07877721529981
H            3.51650068289055        0.18606270794872        0.03316236592891
H            3.28788514165382        0.47560673800640        2.91243295845602
H            4.31171503175020       -0.59949199013648        2.22051141481252
N            2.15744465791478        2.41399824631051        0.01215968287104
C            3.21771693090972        2.44119283571261       -1.00211306554698
H            1.72208726305945        3.31359450390795        0.20424070399887
C            3.38157752352957        3.82182731791384       -1.56205497470667
O            4.63378288213305        4.24481997118322       -1.90024053785712
O            2.25013071194932        4.58208194834583       -1.74466344468377
H            1.44394164834696        4.03034240950094       -1.61418359724014
C            2.95113521793295        1.42677709321503       -2.13525458984945
H            4.15113825766349        2.18026141601747       -0.48323383710771
C            4.16721485281930        0.67950463414968       -2.57458012193625
H            2.51001996991640        1.94454220431699       -2.99318851681281
H            2.19039357756271        0.71193520469188       -1.80741148696830
C            5.48393219429429        1.19931794966364       -2.75378371750464
C            6.04393807513621        2.47113963416524       -2.57669130416335
C            7.37082791906221        2.65376630340225       -2.82621497178498
C            8.18021437537377        1.58841196662149       -3.25451944847274
C            7.66110834649353        0.33518930065812       -3.43441786815828
C            6.29811118131152        0.13131980758261       -3.18191332303857
H            5.32021374995112        3.39813560067640       -2.21059508957496
H            7.80239532228657        3.63191682053421       -2.69378203074530
H            9.22618340711399        1.76391554554969       -3.44411359962086
H            8.27213397767645       -0.48705343296166       -3.76094984055491
N            5.49742611870138       -0.99421237930757       -3.26291497187070
C            4.21928880092646       -0.65385974635662       -2.89739226855451
H            5.81949855558604       -1.91847939497517       -3.55567788342680
H            3.38890590062363       -1.33805662004747       -2.85482947024547
