48
Energy =
C    -3.2812675   -1.4909442    1.2907518 
C    -2.1694303   -1.5945121    0.5196249 
C    -4.4562673   -1.0788671    0.7439893 
C    -4.5097296   -0.7728217   -0.5723030 
C    -3.4008854   -0.8745705   -1.3482461 
C    -2.2231740   -1.2896928   -0.8060332 
H    -1.2364530   -1.9238860    0.9697835 
H    -5.4523588   -0.4441215   -0.9957877 
H    -3.4640046   -0.6193742   -2.4026557 
H    -3.2276610   -1.7378020    2.3454560 
C    -0.9783813   -1.3899030   -1.6599115 
C    -0.0161168   -0.1933977   -1.4524446 
H    -1.2393326   -1.4756801   -2.7383368 
H    -0.4495933   -2.3356772   -1.4043419 
C     1.3133920   -0.3844884   -2.1799409 
O    -5.6202677   -0.9600166    1.5106698 
H    -5.4974716   -1.2098044    2.4857748 
O     1.4859005   -1.5101548   -2.9717073 
N    -0.6540683    1.0653850   -1.8706095 
H     0.2398204   -0.1283905   -0.3708143 
H    -0.9867608    0.9837337   -2.8603063 
H    -1.4847903    1.2646052   -1.2662630 
N     2.3143469    0.6574118   -2.0774053 
C     3.6942021    0.5837712   -2.6540487 
H     2.3972492    0.8694919   -1.0562243 
C     4.0600865    1.9510751   -3.2562674 
O     4.7608273    2.0364565   -4.4549080 
O     3.8034471    3.1426437   -2.5767457 
H     3.2238711    2.9978023   -1.7650407 
C     3.9959841   -0.5881610   -3.6520200 
H     4.4093960    0.4905331   -1.8073823 
C     4.5263117   -1.8381232   -2.9652195 
H     4.7996692   -0.3041872   -4.3632841 
H     3.1389104   -0.7821918   -4.3277289 
C     5.7202634   -1.9587567   -2.3556365 
C     6.7112969   -1.0423615   -2.1913874 
C     7.8497172   -1.4255528   -1.5456858 
C     7.9864691   -2.7066200   -1.0883948 
C     6.9876521   -3.6140450   -1.2794785 
C     5.8686614   -3.2093834   -1.9158551 
H     6.6191450   -0.0290034   -2.5729085 
H     8.6564485   -0.7103060   -1.4014961 
H     8.8994236   -3.0059337   -0.5794646 
H     7.0862116   -4.6385636   -0.9367678 
N     4.7399880   -4.0013626   -2.2483809 
C     3.9262601   -3.0444116   -2.9409270 
H     4.5542879   -5.0113012   -2.0501707 
H     2.9841132   -3.2906470   -3.4239798 
