48
Energy =
C    -1.5551621   -1.0587922   -7.9036902 
C    -1.2302725   -0.7993817   -6.6117818 
C    -1.3494910   -0.1169137   -8.8627913 
C    -0.8187957    1.0792253   -8.5218281 
C    -0.4918215    1.3442833   -7.2316614 
C    -0.6995562    0.4062726   -6.2671528 
H    -1.3952112   -1.5649757   -5.8578920 
H    -0.6585025    1.8208452   -9.2968028 
H    -0.0636028    2.3108467   -6.9782417 
H    -1.9781538   -2.0219744   -8.1680834 
C    -0.3185033    0.6945543   -4.8321631 
C     1.1993669    0.5350837   -4.5877728 
H    -0.8801936    0.0369749   -4.1303544 
H    -0.6329884    1.7320032   -4.5781525 
C     1.5694910    1.0506162   -3.2122476 
O    -1.6720028   -0.3522009  -10.2031792 
H    -2.0680042   -1.2695351  -10.3772456 
O     0.9716387    0.5124137   -2.0766561 
N     1.6133128   -0.8720386   -4.7447030 
H     1.7603924    1.1723262   -5.3139390 
H     0.9750949   -1.4889897   -4.1857499 
H     1.5111348   -1.1552408   -5.7484073 
N     2.5573497    2.0812082   -3.0724492 
C     3.6879509    1.6219469   -2.2326026 
H     2.0627907    2.8558913   -2.5704827 
C     4.5974086    2.7835367   -1.8352278 
O     4.7311716    3.8811935   -2.6763307 
O     5.3679738    2.7360432   -0.6726233 
H     5.2077779    1.8924484   -0.1419439 
C     4.5042935    0.5336955   -2.9878809 
H     3.2831356    1.2268674   -1.2681556 
C     4.7115352   -0.6878587   -2.1247254 
H     5.4780904    0.9311605   -3.3495765 
H     3.9856510    0.2180874   -3.9201600 
C     5.8004297   -0.9982947   -1.4039088 
C     6.9838993   -0.3427106   -1.2827290 
C     7.9331997   -0.8674892   -0.4561529 
C     7.6877385   -2.0229144    0.2327895 
C     6.4892192   -2.6592596    0.1022125 
C     5.5670329   -2.1228523   -0.7241365 
H     7.1796544    0.5843137   -1.8146552 
H     8.8879081   -0.3594381   -0.3395366 
H     8.4486145   -2.4315955    0.8931877 
H     6.2746075   -3.5704173    0.6503569 
N     4.2544537   -2.6066404   -0.9745775 
C     3.7628247   -1.6094164   -1.8833515 
H     3.7820090   -3.4601438   -0.5956978 
H     2.7423430   -1.5605856   -2.2720203 
