48
Energy =
C     0.8219662    0.5213958    4.5402518 
C     0.4362651    0.6032588    3.2401739 
C     1.1188028   -0.6855136    5.0899093 
C     1.0265413   -1.8034579    4.3357546 
C     0.6436129   -1.7270805    3.0361820 
C     0.3489315   -0.5203359    2.4759229 
H     0.1972946    1.5750583    2.8148014 
H     1.2640811   -2.7608593    4.7868531 
H     0.5764010   -2.6391391    2.4493845 
H     0.8933768    1.4228558    5.1399273 
C    -0.0709408   -0.4396802    1.0176362 
C     1.0924457   -0.2033033    0.0093037 
H    -0.8389186    0.3565694    0.8900356 
H    -0.5881554   -1.3842210    0.7384141 
C     1.5001339    1.2608801   -0.1481069 
O     1.5186758   -0.8046251    6.4243462 
H     1.5729938    0.0778347    6.9212810 
O     1.0468831    2.2182871    0.7534628 
N     2.2513060   -1.0610201    0.3124482 
H     0.7042404   -0.4861753   -0.9958391 
H     2.6716357   -0.7822233    1.2314851 
H     1.9414443   -2.0573386    0.3922314 
N     2.0779775    1.7260543   -1.3798527 
C     3.5193823    1.3662247   -1.4851167 
H     1.9604705    2.7666587   -1.3404318 
C     4.4154434    2.5454083   -1.8726800 
O     5.6636282    2.6634380   -1.2746293 
O     4.0489414    3.4848067   -2.8372459 
H     3.1874584    3.2293773   -3.2977728 
C     3.6833920    0.1818538   -2.4666183 
H     3.9310390    1.0394296   -0.4977013 
C     3.2307689    0.5069103   -3.8735264 
H     3.0955340   -0.6858732   -2.1002640 
H     4.7411969   -0.1603577   -2.4728467 
C     3.9914492    0.9455047   -4.8896310 
C     5.3237011    1.2052451   -4.9334457 
C     5.8563284    1.6671903   -6.1010706 
C     5.0590740    1.8619966   -7.1949379 
C     3.7230815    1.5996313   -7.1260442 
C     3.2201816    1.1426880   -5.9599750 
H     5.9566215    1.0703614   -4.0614003 
H     6.9187779    1.8906452   -6.1583050 
H     5.4903758    2.2354233   -8.1199986 
H     3.0746670    1.7573614   -7.9808052 
N     1.8642727    0.8329742   -5.6727723 
C     1.9583060    0.4344352   -4.2992571 
H     1.0264900    0.8836672   -6.2955865 
H     1.1130659    0.1356450   -3.6843003 
