48
Energy =
C     1.1430452    5.2989366    2.8644201 
C     1.4551313    4.3184617    1.9796237 
C     0.5319354    4.9904158    4.0394978 
C     0.2379106    3.7007730    4.3213382 
C     0.5475987    2.7160501    3.4405009 
C     1.1552225    3.0201381    2.2610673 
H     1.9475439    4.5816483    1.0459512 
H    -0.2472688    3.4674319    5.2627175 
H     0.3071647    1.6850782    3.6871742 
H     1.3849613    6.3300185    2.6299357 
C     1.5192848    1.9214301    1.2877590 
C     2.7994117    1.1664540    1.7188020 
H     1.6479558    2.3383387    0.2629082 
H     0.6689699    1.2057637    1.2204141 
C     3.0690575   -0.0342184    0.8258506 
O     0.1974979    5.9764563    4.9734527 
H     0.4493991    6.9164130    4.6876176 
O     3.0358526   -1.3073636    1.3784690 
N     3.9606209    2.0747179    1.7578300 
H     2.6403618    0.7342489    2.7373269 
H     3.9363119    2.7554015    0.9602709 
H     3.9143896    2.6543170    2.6292912 
N     3.0302357    0.0795635   -0.6016394 
C     4.1718267    0.7303288   -1.2680824 
H     2.1734830   -0.2483440   -1.0998412 
C     3.7632290    2.0705927   -1.8628614 
O     4.4414689    3.2185939   -1.4766139 
O     2.7060954    2.1936460   -2.7648302 
H     2.2826072    1.3025157   -2.9695688 
C     4.7411340   -0.2414489   -2.3221894 
H     4.9775909    0.9624270   -0.5283761 
C     6.0930182    0.2136070   -2.8284008 
H     4.0320874   -0.3742520   -3.1670663 
H     4.8548521   -1.2478851   -1.8563884 
C     6.3428458    0.9959780   -3.8915806 
C     5.4878521    1.5475907   -4.7909597 
C     6.0052158    2.3213435   -5.7877678 
C     7.3540586    2.5295170   -5.8716372 
C     8.1939158    1.9659975   -4.9576646 
C     7.6579352    1.2046214   -3.9806418 
H     4.4160550    1.3918655   -4.7254582 
H     5.3396708    2.7801670   -6.5150779 
H     7.7577071    3.1512753   -6.6667691 
H     9.2656592    2.1253946   -5.0063900 
N     8.3507339    0.5420511   -2.9322397 
C     7.2627771   -0.0698363   -2.2280966 
H     9.3768451    0.5085323   -2.7332794 
H     7.3732547   -0.6654180   -1.3241611 
