48
Energy =
C     2.5250825    4.9828167   -2.1878837 
C     1.5601294    4.0281616   -2.2200575 
C     2.5308839    5.9161245   -1.2010239 
C     1.5732400    5.8840919   -0.2468593 
C     0.6172227    4.9208140   -0.2631321 
C     0.6062061    3.9840410   -1.2514351 
H     1.5738238    3.2797565   -3.0107248 
H     1.5912523    6.6311451    0.5383894 
H    -0.1293921    4.8998770    0.5254574 
H     3.3045337    4.9850521   -2.9412490 
C    -0.4292062    2.8779842   -1.2487648 
C     0.1216325    1.5217718   -0.7353546 
H    -0.8264697    2.7475210   -2.2808807 
H    -1.3024429    3.1699354   -0.6261222 
C     1.0923620    0.8811278   -1.7188269 
O     3.5059077    6.9180513   -1.1444175 
H     4.2357236    6.8211211   -1.8417031 
O     0.6539101    0.7048692   -3.0275548 
N     0.6890626    1.6630415    0.6188385 
H    -0.7276240    0.8040839   -0.6880577 
H     1.5477438    2.2623831    0.5758384 
H     0.0041606    2.1518335    1.2405151 
N     2.1286534    0.0119748   -1.2364686 
C     3.4310212    0.1858207   -1.9307478 
H     1.7653625   -0.9616442   -1.3219333 
C     3.9072791    1.6394892   -1.9385464 
O     4.1285061    2.2994516   -3.1441767 
O     4.1688936    2.3217765   -0.7529282 
H     3.9121675    1.7673580    0.0521853 
C     3.4438687   -0.4408749   -3.3522471 
H     4.2026790   -0.3400789   -1.3268832 
C     3.2296260   -1.9402229   -3.3307326 
H     4.4354077   -0.2483677   -3.8199962 
H     2.7159240    0.0800266   -4.0067459 
C     2.1453611   -2.6265632   -3.7389559 
C     0.9795368   -2.1903387   -4.2838030 
C     0.0289335   -3.1132078   -4.6117382 
C     0.2543900   -4.4434783   -4.3961033 
C     1.4312536   -4.8607086   -3.8514423 
C     2.3553424   -3.9300448   -3.5342861 
H     0.7904375   -1.1366289   -4.4591524 
H    -0.9152350   -2.7888045   -5.0448324 
H    -0.5088240   -5.1726463   -4.6591123 
H     1.6256223   -5.9135914   -3.6738881 
N     3.6348850   -4.1583660   -2.9627174 
C     4.1345296   -2.8197393   -2.8637750 
H     4.0886845   -5.0616003   -2.6900137 
H     5.1115406   -2.5588992   -2.4608225 
