48
Energy =
C     1.9074878    4.0045910    4.7888141 
C     2.3699219    2.8354725    4.2782537 
C     2.1546181    5.1770029    4.1456975 
C     2.8640862    5.1715035    2.9945273 
C     3.3295143    4.0054117    2.4789429 
C     3.0865734    2.8284399    3.1207413 
H     2.1604431    1.9063167    4.8020747 
H     3.0537681    6.1137459    2.4906708 
H     3.8988433    4.0229788    1.5492490 
H     1.3382352    3.9989058    5.7120329 
C     3.5876185    1.5265721    2.5365488 
C     2.6508062    0.9945570    1.4203376 
H     3.7098114    0.7566841    3.3303391 
H     4.6183280    1.6889635    2.1402401 
C     3.3811704    0.0180982    0.5142555 
O     1.6910659    6.3982883    4.6441441 
H     1.1720985    6.3194096    5.5117482 
O     4.0488218   -1.0737455    1.0635299 
N     1.4566247    0.3645415    2.0049821 
H     2.3244100    1.8364656    0.7653149 
H     1.7404104   -0.4117166    2.6503694 
H     0.9222231    1.0682392    2.5658119 
N     3.4816802    0.2622608   -0.8995098 
C     4.7425018    0.9770348   -1.2136519 
H     3.5200276   -0.6959589   -1.3147437 
C     4.7250838    2.3988980   -0.6662878 
O     5.7198595    2.8053690    0.2105401 
O     3.6997810    3.2947760   -0.9606074 
H     3.0282984    2.8816763   -1.5920363 
C     4.9713901    1.0096256   -2.7423379 
H     5.6142317    0.4650074   -0.7356996 
C     5.3500063   -0.3480943   -3.2928284 
H     5.7997387    1.7176440   -2.9766977 
H     4.0714765    1.4068560   -3.2572843 
C     4.5425037   -1.2348661   -3.8981329 
C     3.2165530   -1.1568531   -4.1830835 
C     2.6231822   -2.2167364   -4.8038311 
C     3.3542775   -3.3267751   -5.1254645 
C     4.6831761   -3.3844036   -4.8268388 
C     5.2477789   -2.3228138   -4.2140967 
H     2.6305776   -0.2811371   -3.9206425 
H     1.5622646   -2.1801428   -5.0408276 
H     2.8735776   -4.1687686   -5.6179097 
H     5.2767222   -4.2594362   -5.0700544 
N     6.6019712   -2.1875852   -3.8073618 
C     6.5815437   -0.8823976   -3.2147957 
H     7.3990495   -2.8568624   -3.9137706 
H     7.4426379   -0.4015954   -2.7545105 
