48
Energy =
C    -0.0228520   -4.7511720   -3.7253942 
C     0.1586687   -3.4100581   -3.6222214 
C     1.0276551   -5.5626997   -4.0211536 
C     2.2540296   -5.0253746   -4.2117570 
C     2.4415111   -3.6854266   -4.1093918 
C     1.3927502   -2.8685915   -3.8167065 
H    -0.6900591   -2.7754582   -3.3806450 
H     3.0839693   -5.6824996   -4.4468829 
H     3.4350792   -3.2729880   -4.2642568 
H    -1.0097770   -5.1731685   -3.5694270 
C     1.6068892   -1.3771828   -3.6849619 
C     2.2429956   -0.9927541   -2.3265459 
H     0.6521816   -0.8221364   -3.8255097 
H     2.2697084   -1.0412744   -4.5145189 
C     2.6777563    0.4713515   -2.2894517 
O     0.8751397   -6.9486608   -4.1327987 
H    -0.0740055   -7.2722399   -3.9816488 
O     2.3556584    1.3288449   -3.3389393 
N     1.3183887   -1.2830006   -1.2184454 
H     3.1720924   -1.5898834   -2.1858604 
H     0.3941373   -0.8192715   -1.3902315 
H     1.1488724   -2.3146282   -1.1566229 
N     3.5134813    0.9638511   -1.2237014 
C     4.9543342    1.1726868   -1.5511900 
H     3.4098733    0.3218441   -0.4031946 
C     5.3191609    2.6502473   -1.4497589 
O     6.4791043    3.0140911   -0.7782831 
O     4.6013684    3.6396024   -2.1177740 
H     3.7434964    3.2661837   -2.4995094 
C     5.4017385    0.5839903   -2.9208141 
H     5.5665596    0.6752591   -0.7619150 
C     6.9044983    0.6593476   -3.0980455 
H     4.9098373    1.1378873   -3.7534910 
H     5.0876685   -0.4755005   -3.0097157 
C     7.8053256   -0.2652610   -2.7291615 
C     7.6207412   -1.4778958   -2.1455270 
C     8.7199031   -2.2324864   -1.8578327 
C     9.9726042   -1.7680510   -2.1498195 
C    10.1339214   -0.5449946   -2.7301013 
C     9.0311987    0.1812583   -3.0085502 
H     6.6288306   -1.8459802   -1.9023545 
H     8.5998458   -3.2062220   -1.3887783 
H    10.8440852   -2.3734504   -1.9128139 
H    11.1208288   -0.1576525   -2.9599413 
N     8.9810866    1.4767179   -3.5886145 
C     7.5665477    1.7181108   -3.5998924 
H     9.7635840    2.0825096   -3.9277478 
H     7.0993856    2.6529825   -3.9117297 
