48
Energy =
C     6.7191280   -2.3043336   -1.3541037 
C     6.1276623   -1.9628847   -0.1810027 
C     6.0282382   -3.0130288   -2.2868410 
C     4.7544573   -3.3880416   -2.0335795 
C     4.1566040   -3.0449883   -0.8643045 
C     4.8418625   -2.3311956    0.0701797 
H     6.6840094   -1.3776633    0.5472707 
H     4.2154096   -3.9494704   -2.7891604 
H     3.1164032   -3.3165373   -0.6882747 
H     7.7410224   -1.9964664   -1.5490928 
C     4.1507032   -1.8767106    1.3365062 
C     3.5667901   -0.4527456    1.1846156 
H     4.8761361   -1.8936460    2.1796103 
H     3.3369708   -2.5860386    1.6098736 
C     2.5878326   -0.3574084    0.0247371 
O     6.5955396   -3.3553654   -3.5177240 
H     7.5652977   -3.0723425   -3.6147842 
O     1.5383987   -1.2642573   -0.0918117 
N     2.9239389   -0.0382724    2.4397488 
H     4.3981976    0.2561367    0.9614010 
H     2.1310701   -0.6893231    2.6579044 
H     3.6106713   -0.0997645    3.2272023 
N     2.6856947    0.7089855   -0.9217478 
C     3.6032808    0.5109537   -2.0577402 
H     2.1475830    1.5890781   -0.7512883 
C     4.2455313    1.8322041   -2.4924291 
O     3.5343575    3.0220525   -2.3822118 
O     5.5253654    1.8667690   -3.0514400 
H     5.9431039    0.9502425   -3.1041977 
C     2.8496399   -0.2541727   -3.1840168 
H     4.4528349   -0.1246882   -1.7267350 
C     2.8500472    0.4351488   -4.5321836 
H     1.7953930   -0.4480941   -2.8803567 
H     3.2990127   -1.2630033   -3.2981584 
C     2.0089022    1.3967223   -4.9413251 
C     0.9684516    1.9760442   -4.2901239 
C     0.2668562    2.9540037   -4.9317732 
C     0.6136647    3.3349144   -6.1989205 
C     1.6663970    2.7416519   -6.8308543 
C     2.3435112    1.7754237   -6.1755309 
H     0.7048495    1.6859214   -3.2770849 
H    -0.5654540    3.4398731   -4.4284282 
H     0.0541038    4.1203041   -6.7005355 
H     1.9612028    3.0390155   -7.8312540 
N     3.4717744    1.0480021   -6.6425574 
C     3.7435908    0.2078908   -5.5107825 
H     3.9564879    1.1058779   -7.5675424 
H     4.5761475   -0.4909747   -5.4414256 
