48
Energy =
C     0.3712054    4.9378305   -3.4720800 
C     0.6206399    4.6100010   -2.1789578 
C     1.0060837    5.9947479   -4.0446768 
C     1.8886671    6.7159747   -3.3190042 
C     2.1441716    6.3919121   -2.0267434 
C     1.5103085    5.3345705   -1.4462429 
H     0.1055194    3.7588212   -1.7407664 
H     2.3898323    7.5538408   -3.7898962 
H     2.8599218    6.9827350   -1.4629920 
H    -0.3320755    4.3459278   -4.0482392 
C     1.7987908    4.9644448   -0.0043961 
C     2.8700072    3.8531542    0.1515405 
H     0.8531756    4.6352810    0.4846155 
H     2.1223512    5.8651505    0.5621191 
C     2.4056171    2.5032171   -0.3817166 
O     0.7668008    6.3655514   -5.3717169 
H     0.1459767    5.7317374   -5.8638722 
O     1.1569051    2.0349647    0.0159225 
N     4.1565454    4.2711928   -0.4310507 
H     3.0222374    3.6871258    1.2415125 
H     4.0537884    4.3967840   -1.4661807 
H     4.4403257    5.1955777   -0.0313609 
N     3.3727851    1.5433346   -0.8378020 
C     3.2155174    0.9635127   -2.1869450 
H     4.1924322    1.3220135   -0.2297499 
C     3.0270083    2.0314712   -3.2648025 
O     1.8129707    2.1531861   -3.9316689 
O     4.0663684    2.8993087   -3.6033092 
H     4.9019195    2.6982980   -3.0723754 
C     2.0906463   -0.0942692   -2.1817105 
H     4.1616869    0.4448650   -2.4585064 
C     2.4118286   -1.2377581   -1.2459425 
H     1.9342780   -0.4927380   -3.2080239 
H     1.1263809    0.3762871   -1.8850558 
C     3.2021468   -2.2905061   -1.5058727 
C     3.8716919   -2.6169780   -2.6412360 
C     4.6234581   -3.7551948   -2.6451750 
C     4.6954738   -4.5393993   -1.5268989 
C     4.0163206   -4.1897007   -0.3974419 
C     3.2781184   -3.0601253   -0.4191149 
H     3.8159608   -1.9943455   -3.5291173 
H     5.1680476   -4.0403561   -3.5420141 
H     5.2969288   -5.4447794   -1.5376802 
H     4.0644836   -4.7986381    0.4988025 
N     2.5104382   -2.5147775    0.6443156 
C     1.9882458   -1.3307224    0.0265525 
H     2.3662730   -2.8745925    1.6150676 
H     1.3551281   -0.6021592    0.5282981 
