48
Energy =
C    -2.2279673    1.2043942    2.7229174 
C    -1.1382292    2.0022927    2.5644302 
C    -2.5824188    0.3241216    1.7447635 
C    -1.8453421    0.2507221    0.6126244 
C    -0.7620291    1.0498506    0.4608987 
C    -0.3899303    1.9170791    1.4311197 
H    -0.8744703    2.7072763    3.3482033 
H    -2.1301411   -0.4495164   -0.1646467 
H    -0.0418022    1.0586196   -0.4712176 
H    -2.8169399    1.2745528    3.6309852 
C     0.8078388    2.8286276    1.1965116 
C     2.0156575    2.1207470    0.5075290 
H     1.1431327    3.2438553    2.1720190 
H     0.4803413    3.6912261    0.5750595 
C     1.7572249    1.7736483   -0.9756489 
O    -3.6953057   -0.5120298    1.8788168 
H    -4.1983950   -0.3911006    2.7508109 
O     0.6210070    1.0561743   -1.3505580 
N     3.2221959    2.9500366    0.6708617 
H     2.1885158    1.1396352    1.0106955 
H     3.0695116    3.8926334    0.2355595 
H     3.4240860    3.1016700    1.6875062 
N     2.7289944    2.0445184   -1.9887800 
C     3.9710096    1.2491928   -1.9519899 
H     2.5521856    2.8327662   -2.6517991 
C     5.0835857    1.8970407   -2.7718628 
O     4.7941541    2.8957020   -3.6938832 
O     6.4075268    1.4770111   -2.6397810 
H     6.5012280    0.7076693   -1.9938042 
C     3.6688417   -0.1964652   -2.4450182 
H     4.3563487    1.3008791   -0.9437699 
C     3.9431299   -1.4436482   -1.5906311 
H     4.1807565   -0.3569344   -3.4225396 
H     2.5877929   -0.2459422   -2.7193346 
C     4.4423063   -1.6764148   -0.3365036 
C     4.9175054   -0.8534044    0.6491001 
C     5.3537455   -1.3984096    1.8204439 
C     5.3210624   -2.7449614    2.0127703 
C     4.8531089   -3.5598063    1.0346951 
C     4.4253937   -3.0045794   -0.1178332 
H     4.9842706    0.2095963    0.5782603 
H     5.7342474   -0.7528539    2.6093884 
H     5.6722183   -3.1693634    2.9505355 
H     4.8215887   -4.6359581    1.1710752 
N     3.9129397   -3.7128088   -1.2279201 
C     3.6283736   -2.6429082   -2.1234288 
H     3.7790160   -4.7424084   -1.3583161 
H     3.1983906   -2.7878369   -3.1136641 
