48
Energy =
C    -4.2316208   -0.3841254   -1.8346838 
C    -3.1021303   -0.0469182   -2.5073826 
C    -4.1620722   -1.1959209   -0.7458243 
C    -2.9611351   -1.6644643   -0.3372718 
C    -1.8284738   -1.3302046   -1.0058518 
C    -1.8929571   -0.5207461   -2.0982554 
H    -3.1730359    0.6062755   -3.3734209 
H    -2.9197155   -2.3102413    0.5328535 
H    -0.8723598   -1.7153185   -0.6619786 
H    -5.1899628   -0.0018691   -2.1693925 
C    -0.6286195   -0.1351143   -2.8334848 
C     0.1582358    0.9778443   -2.1019917 
H    -0.8604234    0.1901230   -3.8735563 
H     0.0110702   -1.0408912   -2.9358438 
C     1.5370087    1.1513546   -2.7235448 
O    -5.3059909   -1.5622141   -0.0293212 
H    -6.1658872   -1.1725845   -0.4000780 
O     1.6271271    1.7681394   -3.9654281 
N    -0.5885778    2.2464384   -2.1216542 
H     0.3212842    0.6817104   -1.0404256 
H    -0.8116692    2.5153202   -3.1104774 
H    -1.4955287    2.1377280   -1.6107911 
N     2.6689556    0.4604219   -2.1428278 
C     4.0323145    0.4216407   -2.7385270 
H     2.4713546   -0.1603689   -1.3260979 
C     4.2395552    1.1760643   -4.0576352 
O     4.9672659    2.3613348   -4.0480975 
O     3.8253671    0.6556750   -5.2857201 
H     3.1698480   -0.0995320   -5.1570486 
C     4.4967759   -1.0521544   -2.8604490 
H     4.7137276    0.9434819   -2.0295675 
C     4.7783724   -1.6760035   -1.5108075 
H     5.4216864   -1.1206003   -3.4774878 
H     3.7191640   -1.6457027   -3.3905369 
C     5.8558146   -1.4663530   -0.7386759 
C     6.9472777   -0.6893664   -0.9600749 
C     7.9161014   -0.6455734   -0.0009137 
C     7.7813930   -1.3710825    1.1507667 
C     6.6768392   -2.1454106    1.3500507 
C     5.7323280   -2.1720070    0.3864697 
H     7.0567562   -0.1145209   -1.8754344 
H     8.8003423   -0.0308450   -0.1532692 
H     8.5581472   -1.3308811    1.9104626 
H     6.5545147   -2.7271540    2.2573839 
N     4.5151746   -2.9048307    0.3957922 
C     3.9574404   -2.5262662   -0.8691838 
H     4.1308428   -3.5429239    1.1297446 
H     3.0005801   -2.8767404   -1.2478987 
