48
Energy =
C    -2.0421310   -1.8915309   -1.0018638 
C    -0.8957765   -1.8691805   -0.2755362 
C    -2.6954084   -0.7326197   -1.2844111 
C    -2.1947046    0.4423000   -0.8402152 
C    -1.0498788    0.4705272   -0.1123840 
C    -0.3967385   -0.6878927    0.1812222 
H    -0.3805195   -2.8027377   -0.0640396 
H    -2.7203720    1.3604545   -1.0793720 
H    -0.6551273    1.4266040    0.2255145 
H    -2.4335263   -2.8381895   -1.3585679 
C     0.8952455   -0.6605074    0.9692123 
C     2.1277453   -0.5803980    0.0421070 
H     0.9606322   -1.5735957    1.6005323 
H     0.9003742    0.2035689    1.6721268 
C     2.1429214    0.7107257   -0.7568681 
O    -3.8790568   -0.7208384   -2.0288607 
H    -4.1843926   -1.6390173   -2.3322483 
O     2.0366805    1.9324542   -0.0979131 
N     3.3600220   -0.7187690    0.8355531 
H     2.0822588   -1.4107175   -0.7014160 
H     3.4049913    0.0501731    1.5481366 
H     3.3459414   -1.6280418    1.3543328 
N     2.5828328    0.6992951   -2.1207145 
C     4.0313404    1.0155577   -2.2227563 
H     1.9962386    1.4074070   -2.6234709 
C     4.2894755    2.3825040   -2.8703337 
O     4.6552741    2.4704675   -4.2094492 
O     4.1398707    3.5642575   -2.1495592 
H     3.7213827    3.3949263   -1.2453272 
C     4.6958223   -0.1413121   -2.9963337 
H     4.5200957    1.0746880   -1.2175945 
C     6.2072372   -0.0665731   -2.9475993 
H     4.3398959   -0.1352731   -4.0517922 
H     4.3632106   -1.1110806   -2.5654858 
C     6.9976616   -0.4939540   -1.9509732 
C     6.6709951   -1.1041945   -0.7831207 
C     7.6750884   -1.4327444    0.0791878 
C     8.9756140   -1.1482001   -0.2342322 
C     9.2795199   -0.5323572   -1.4121897 
C     8.2683834   -0.2193327   -2.2494151 
H     5.6385220   -1.3269609   -0.5307479 
H     7.4390195   -1.9207619    1.0216918 
H     9.7701309   -1.4109164    0.4597259 
H    10.3050688   -0.2946261   -1.6738223 
N     8.3653248    0.4328479   -3.5075111 
C     6.9830869    0.4995678   -3.8894296 
H     9.2144126    0.7671481   -4.0187410 
H     6.6116811    0.9760185   -4.7973226 
