48
Energy =
C    -2.0622533    1.3222188   -3.4575485 
C    -0.9753018    0.5667948   -3.7575411 
C    -1.9510079    2.6736760   -3.3655686 
C    -0.7518075    3.2611660   -3.5765232 
C     0.3371773    2.5113451   -3.8790943 
C     0.2373316    1.1532299   -3.9633405 
H    -1.0826792   -0.5111648   -3.8289836 
H    -0.6716193    4.3409170   -3.4986954 
H     1.2891573    3.0130280   -4.0430408 
H    -3.0208714    0.8425128   -3.2909418 
C     1.4556587    0.3089476   -4.3050324 
C     2.0184259   -0.4982409   -3.1052232 
H     2.2628924    0.9657751   -4.7046136 
H     1.1925799   -0.3894654   -5.1282907 
C     2.5045824    0.3844862   -1.9578649 
O    -3.0520785    3.4791049   -3.0603059 
H    -3.9111913    2.9651129   -2.8989568 
O     2.9865533   -0.2090796   -0.7949212 
N     1.0108672   -1.4751826   -2.6609296 
H     2.9257556   -1.0458123   -3.4509628 
H     0.9413247   -2.2412886   -3.3713674 
H     1.3393614   -1.9386313   -1.7783900 
N     2.7298152    1.7846342   -2.1698214 
C     4.1558735    2.1752705   -2.0784783 
H     2.2074357    2.2612762   -1.3973043 
C     4.2830367    3.6920592   -2.2241294 
O     3.5171628    4.3582671   -3.1759369 
O     5.1875131    4.4305288   -1.4613835 
H     5.7532168    3.8435610   -0.8677574 
C     4.9927046    1.4578168   -3.1670191 
H     4.5500826    1.9021568   -1.0712215 
C     6.4658157    1.7873405   -3.0516185 
H     4.6123649    1.7240765   -4.1762167 
H     4.8924992    0.3581001   -3.0619121 
C     7.1345773    2.7584951   -3.6951781 
C     6.6964495    3.6644757   -4.6069315 
C     7.5897657    4.5653994   -5.1068111 
C     8.8931257    4.5485663   -4.6934923 
C     9.3102111    3.6321228   -3.7744104 
C     8.4073262    2.7510406   -3.2944984 
H     5.6582135    3.6931772   -4.9246247 
H     7.2587008    5.3074874   -5.8291166 
H     9.5966188    5.2748125   -5.0923186 
H    10.3380468    3.6108598   -3.4292020 
N     8.6307352    1.7350146   -2.3264588 
C     7.3208956    1.1634665   -2.2219529 
H     9.5129124    1.4748707   -1.8291716 
H     7.0579802    0.3498631   -1.5499644 
