48
Energy =
C     3.2609807    2.3128011    5.6602211 
C     2.9572973    1.4215042    4.6827677 
C     4.2065266    3.2668254    5.4464840 
C     4.8415077    3.3227421    4.2536887 
C     4.5427475    2.4337264    3.2731542 
C     3.5996048    1.4746922    3.4835545 
H     2.1955279    0.6685785    4.8676203 
H     5.5909977    4.0901005    4.0930549 
H     5.0623088    2.4985521    2.3191135 
H     2.7447723    2.2616688    6.6126981 
C     3.2564355    0.4954903    2.3835952 
C     2.3749052    1.1387654    1.2876305 
H     2.7480981   -0.4067763    2.7930774 
H     4.2066925    0.1264919    1.9364188 
C     2.2917874    0.2365277    0.0697049 
O     4.5424588    4.1998564    6.4331819 
H     4.0215499    4.0923680    7.2964078 
O     1.7278334   -1.0302406    0.1668813 
N     1.0295437    1.4358239    1.8061014 
H     2.8477007    2.0898499    0.9423986 
H     0.5910686    0.5616051    2.1839611 
H     1.0939336    2.1273269    2.5896585 
N     2.7569652    0.6909716   -1.2039177 
C     4.2154784    0.7754111   -1.3969254 
H     2.0513666    0.9103536   -1.9405351 
C     4.6716294    2.2261098   -1.4199335 
O     5.4654271    2.6974787   -0.3817847 
O     4.2924180    3.1095581   -2.4294638 
H     3.6719181    2.6749022   -3.0942861 
C     4.6158963    0.0130959   -2.6778992 
H     4.7571858    0.3111700   -0.5381914 
C     4.5748226   -1.4832668   -2.4530111 
H     5.6520777    0.2957077   -2.9748989 
H     3.9594620    0.2940334   -3.5287820 
C     3.5324442   -2.3090894   -2.6437849 
C     2.2875125   -2.0501565   -3.1197195 
C     1.3989736   -3.0813032   -3.2090573 
C     1.7641100   -4.3426285   -2.8277309 
C     3.0200817   -4.5802613   -2.3543749 
C     3.8806430   -3.5436877   -2.2751527 
H     1.9933763   -1.0510233   -3.4193114 
H     0.3930716   -2.8978481   -3.5787393 
H     1.0486211   -5.1582250   -2.8967044 
H     3.3246771   -5.5736653   -2.0431188 
N     5.2214898   -3.5769940   -1.8067961 
C     5.5947682   -2.2005701   -1.9481719 
H     5.7818242   -4.3881948   -1.4573769 
H     6.5631269   -1.7946927   -1.6635433 
