48
Energy =
C     1.8933374   -0.2580751    2.5268431 
C     0.9133184    0.3542971    1.8166567 
C     3.1319290    0.2967828    2.6017749 
C     3.3836053    1.4599386    1.9585213 
C     2.4057475    2.0785679    1.2486490 
C     1.1612814    1.5297043    1.1754730 
H    -0.0716171   -0.1027139    1.7670417 
H     4.3768429    1.8918800    2.0234055 
H     2.6251844    3.0181256    0.7458753 
H     1.6825177   -1.1921955    3.0364145 
C     0.0629177    2.2148438    0.3870802 
C     0.0851033    1.8796391   -1.1244155 
H     0.1470231    3.3178160    0.5218482 
H    -0.9313113    1.9430386    0.8049274 
C     1.3373093    2.4063014   -1.8090570 
O     4.1605056   -0.3078981    3.3312643 
H     3.8781937   -1.1537220    3.8150339 
O     1.6376683    3.7602657   -1.7205056 
N    -0.1232275    0.4364969   -1.3486229 
H    -0.7504695    2.4347200   -1.6109813 
H     0.6789646   -0.1092861   -0.9524600 
H    -0.9912189    0.1209463   -0.8546301 
N     2.0718135    1.5956451   -2.7334408 
C     3.5352696    1.5502559   -2.5635911 
H     1.5440493    1.0486503   -3.4510040 
C     4.2318676    2.6308480   -3.3914702 
O     5.1823624    3.4438444   -2.7850270 
O     4.0147791    2.7622767   -4.7650069 
H     3.2583901    2.1709717   -5.0727600 
C     4.0255214    0.1320043   -2.9212748 
H     3.8054385    1.7563239   -1.5007812 
C     5.5136656   -0.0175288   -2.6940999 
H     3.7851210   -0.0988022   -3.9832117 
H     3.4781591   -0.6161949   -2.3060340 
C     6.1290460   -0.2777639   -1.5301311 
C     5.6034957   -0.5080600   -0.2997172 
C     6.4601790   -0.7333176    0.7374365 
C     7.8120354   -0.7217925    0.5330898 
C     8.3166951   -0.4850208   -0.7108147 
C     7.4493720   -0.2686341   -1.7216648 
H     4.5307620   -0.5125021   -0.1327861 
H     6.0673516   -0.9190086    1.7339275 
H     8.4865333   -0.8973847    1.3673172 
H     9.3863853   -0.4648420   -0.8887867 
N     7.7646175    0.0158690   -3.0772450 
C     6.4535435    0.1752343   -3.6365898 
H     8.7005876    0.0819777   -3.5392194 
H     6.2521316    0.4635114   -4.6677666 
