48
Energy =
C    -2.7130952   -0.2558513   -0.6639726 
C    -1.5701250   -0.9601452   -0.4669361 
C    -2.7317754    1.0881639   -0.4578774 
C    -1.6034579    1.7190582   -0.0597824 
C    -0.4580604    1.0193757    0.1404634 
C    -0.4366160   -0.3279173   -0.0548397 
H    -1.5668693   -2.0323732   -0.6438714 
H    -1.6276222    2.7929542    0.0914003 
H     0.4406728    1.5478355    0.4486199 
H    -3.6110932   -0.7694759   -0.9895634 
C     0.8450651   -1.1091218    0.1413504 
C     1.6166590   -1.2869990   -1.1839306 
H     0.6054222   -2.1111937    0.5605513 
H     1.4876663   -0.6095521    0.8987462 
C     2.0301599    0.0497182   -1.7999012 
O    -3.8944445    1.8423204   -0.6472389 
H    -4.6915676    1.3016302   -0.9642033 
O     1.4236061    0.4679656   -2.9804487 
N     2.7732415   -2.1786945   -0.9711782 
H     0.9339257   -1.7579944   -1.9321362 
H     3.3057251   -1.8976708   -0.1130727 
H     2.4263223   -3.1532914   -0.8008287 
N     3.0909182    0.8521584   -1.2400458 
C     4.3588274    0.8988623   -2.0245727 
H     3.2877324    0.5069255   -0.2744122 
C     4.6260769    2.3122528   -2.5308212 
O     5.8988042    2.8490969   -2.3878137 
O     3.6761669    3.0405211   -3.2436985 
H     2.7780714    2.5766412   -3.2353927 
C     4.4446279   -0.1332309   -3.1882477 
H     5.2049247    0.6852594   -1.3280283 
C     5.8546287   -0.2493322   -3.7279148 
H     3.7562829    0.1615039   -4.0127463 
H     4.1043616   -1.1359966   -2.8511603 
C     6.7989608   -1.1157584   -3.3267333 
C     6.7402057   -2.0978353   -2.3894391 
C     7.8598887   -2.8423578   -2.1610068 
C     9.0089613   -2.5951052   -2.8598293 
C     9.0461759   -1.6003787   -3.7912004 
C     7.9249561   -0.8798888   -4.0024356 
H     5.8333166   -2.2945376   -1.8246512 
H     7.8397956   -3.6346841   -1.4164923 
H     9.8981058   -3.1908054   -2.6689010 
H     9.9519013   -1.3861487   -4.3484606 
N     7.7585904    0.2034006   -4.9057261 
C     6.3921011    0.5629363   -4.6567619 
H     8.4449964    0.6172537   -5.5778496 
H     5.8824928    1.4132921   -5.1122339 
