48
 energy: -9.068011681153 gnorm: 0.000802922336 xtb: 6.6.0 (2ccbbd7)
C            0.55662936223706       -1.07326436195833        4.23739962800181
C            0.02445777085029       -0.25411644905967        3.26960273324241
C            1.89407770767625       -1.46574483403549        4.17951434910278
C            2.66889287939317       -1.00699294166321        3.11512338704412
C            2.12858468096852       -0.18659544859900        2.15432251570545
C            0.79952697710750        0.20489333511122        2.21283125863564
H           -1.00880653845218        0.04215125538074        3.32904444612738
H            3.69732518547527       -1.31674166107414        3.06205688984802
H            2.73322346517068        0.13791892288680        1.32551897878271
H           -0.05439599804323       -1.41917382870802        5.05180891653503
C            0.20686154452653        1.11024930897179        1.17361227771502
C            0.22374411748907        0.54156611706267       -0.25780091126826
H            0.73723141928358        2.06790366228864        1.19024294239499
H           -0.82575940647781        1.33897441389584        1.45766563058679
C            1.59688696953365        0.65796079799598       -0.87654289910026
O            2.45997216282614       -2.28629674915754        5.13711768668176
H            1.78986494117715       -2.52331422967853        5.81439959667422
O            2.38453289631905       -0.24935434145909       -0.71339864275121
N           -0.19187481762917       -0.85124124193243       -0.30861553618782
H           -0.47297739815915        1.11658031981866       -0.88891816330690
H            0.61376304593948       -1.42016206336512       -0.06511187146296
H           -0.92659283016201       -1.03487510032785        0.36415540527022
N            1.89321478835551        1.81001076843113       -1.57213059092103
C            3.26604292710524        2.12971926247925       -1.95720745978624
H            1.28348089132465        2.62528022784534       -1.49078301113864
C            3.28711691273708        3.40353128712948       -2.74939531374074
O            4.32340256114755        4.27455481826301       -2.57877458611991
O            2.25736491659838        3.61785233974527       -3.63546698136543
H            1.65999939105525        2.83316031309960       -3.64948410126931
C            3.93809175954159        0.97836775975448       -2.73099455498427
H            3.81665240500194        2.29068438350028       -1.01888108307617
C            5.38581510254886        0.77669536233516       -2.41183546150065
H            3.81269197137687        1.13550933027862       -3.80679665183300
H            3.40326655856534        0.05065499592667       -2.50022551678130
C            6.38255802205027        1.76870809929049       -2.16261000954601
C            6.35481204414114        3.16812087108343       -2.11038507350552
C            7.50099073152311        3.84961686439639       -1.83069216328527
C            8.70709020498006        3.17022709676468       -1.59339276621197
C            8.76684295685364        1.80418432814295       -1.63787344379569
C            7.59557340282983        1.09071218159377       -1.92434375366826
H            5.29749364327052        3.75248920633056       -2.33682652130881
H            7.47870268332590        4.92600462522014       -1.79412393378215
H            9.59751713289549        3.73610340369753       -1.37513795484774
H            9.68459750475743        1.27348260068119       -1.45880044037778
N            7.34167806430412       -0.26409558379743       -2.03186456249468
C            6.01307080057910       -0.44219435974536       -2.32725916583195
H            8.04371154947729       -0.99792339982447       -1.92050218325304
H            5.53918050509137       -1.39935890285924       -2.47416969112173
