48
Energy =
C     0.5347666    2.9000202   -6.7448461 
C     0.0781943    2.1227477   -5.7303740 
C     1.6599046    2.5483909   -7.4228385 
C     2.3215787    1.4203182   -7.0792023 
C     1.8678703    0.6378164   -6.0682586 
C     0.7415726    0.9845461   -5.3855342 
H    -0.8196588    2.4202735   -5.1956807 
H     3.2213568    1.1527871   -7.6221344 
H     2.4169698   -0.2630199   -5.8099896 
H    -0.0013924    3.8040566   -7.0118143 
C     0.2426894    0.1233954   -4.2425833 
C     0.9240724    0.4515776   -2.8890751 
H     0.4027665   -0.9478897   -4.4942963 
H    -0.8593542    0.2347458   -4.1375867 
C     2.4332140    0.2365832   -2.9296184 
O     2.1544276    3.3263267   -8.4752984 
H     1.6110719    4.1618864   -8.6609455 
O     3.3067685    1.3184299   -2.8362688 
N     0.5659019    1.8082244   -2.4403074 
H     0.5510269   -0.2691158   -2.1254877 
H     0.9999282    2.5214103   -3.0753763 
H    -0.4711896    1.9409265   -2.4782645 
N     2.9631276   -1.0986776   -3.0206664 
C     4.3531345   -1.3200925   -2.5708564 
H     2.3588099   -1.8723962   -3.3777967 
C     5.3524492   -1.1681429   -3.7138333 
O     6.5716564   -0.5485239   -3.4668529 
O     5.1223176   -1.7123224   -4.9794419 
H     4.2258417   -2.1700200   -5.0261349 
C     4.4618410   -2.7114609   -1.9132451 
H     4.6457303   -0.5530849   -1.8146067 
C     3.5716964   -2.8116694   -0.6942637 
H     5.5146835   -2.9115101   -1.6109268 
H     4.1858484   -3.5019947   -2.6466594 
C     3.8139616   -2.2987365    0.5219082 
C     4.8939845   -1.6140535    0.9786007 
C     4.8896631   -1.1870778    2.2740687 
C     3.8184066   -1.4473419    3.0836944 
C     2.7446182   -2.1362609    2.6023793 
C     2.7731699   -2.5488750    1.3177575 
H     5.7449746   -1.4058075    0.3365143 
H     5.7418783   -0.6353610    2.6641248 
H     3.8219224   -1.1020766    4.1145842 
H     1.8858572   -2.3487246    3.2299109 
N     1.7623998   -3.2655995    0.6226795 
C     2.3575278   -3.3893062   -0.6751512 
H     0.8345745   -3.6050338    0.9647776 
H     1.8807645   -3.8717688   -1.5240524 
