48
Energy =
C     5.2572994    4.5432001    3.7254469 
C     5.3459933    3.8808518    2.5439427 
C     4.0432243    4.7572196    4.2993934 
C     2.9251733    4.3073129    3.6857440 
C     3.0080502    3.6445291    2.5044791 
C     4.2206664    3.4285601    1.9251253 
H     6.3224266    3.7156179    2.0958459 
H     1.9627251    4.4854502    4.1530555 
H     2.0979169    3.2910628    2.0264320 
H     6.1589982    4.9012714    4.2104613 
C     4.3135482    2.6762187    0.6162130 
C     4.1375266    1.1442966    0.8058385 
H     5.2819448    2.8852209    0.1102226 
H     3.5308794    3.0784687   -0.0706054 
C     3.9870712    0.3883793   -0.5096466 
O     3.9169308    5.4333990    5.5170242 
H     4.7976049    5.7484593    5.9090277 
O     3.7470491   -0.9801683   -0.4741588 
N     5.2593293    0.5964446    1.5858017 
H     3.1853033    0.9488483    1.3515169 
H     6.1716802    0.8786425    1.1566389 
H     5.2309453    0.9687722    2.5635244 
N     3.6650326    1.0848738   -1.7161531 
C     4.7833334    1.5215282   -2.5683109 
H     2.6633488    1.2658847   -1.9546001 
C     4.6826393    3.0040385   -2.9033258 
O     3.4822783    3.6811060   -2.7271745 
O     5.7631942    3.6968371   -3.4467913 
H     6.5948194    3.1274436   -3.4999754 
C     4.8237463    0.6516041   -3.8384688 
H     5.7516421    1.3894646   -2.0327618 
C     3.5426990    0.7383304   -4.6435397 
H     5.0243306   -0.4015328   -3.5468363 
H     5.6781676    0.9613020   -4.4792814 
C     2.4976601   -0.1042812   -4.5935329 
C     2.3140290   -1.2246447   -3.8472096 
C     1.1356169   -1.8997686   -3.9701295 
C     0.1669219   -1.4494230   -4.8236960 
C     0.3696238   -0.3182071   -5.5569774 
C     1.5448986    0.3308156   -5.4203766 
H     3.0718548   -1.5774146   -3.1532065 
H     0.9641816   -2.7966760   -3.3793011 
H    -0.7715234   -1.9910461   -4.9121950 
H    -0.3923991    0.0591783   -6.2303982 
N     1.9402198    1.5328250   -6.0656630 
C     3.2423410    1.7346173   -5.4963208 
H     1.4244781    2.1077268   -6.7714006 
H     3.8713769    2.6082126   -5.6761593 
