48
Energy =
C    -3.7286487    3.1712436    1.6589476 
C    -2.4806405    3.2486475    1.1313268 
C    -4.1496745    2.0225482    2.2527322 
C    -3.3176433    0.9581055    2.3135936 
C    -2.0686135    1.0298123    1.7877397 
C    -1.6408464    2.1789318    1.1965528 
H    -2.1589634    4.1722386    0.6558673 
H    -3.6659973    0.0470768    2.7874850 
H    -1.4182848    0.1612429    1.8419873 
H    -4.3893332    4.0296560    1.6030831 
C    -0.2581433    2.2610477    0.5894042 
C    -0.2895774    2.0627025   -0.9434226 
H     0.4226123    1.5146983    1.0553272 
H     0.1778823    3.2590626    0.8276026 
C     1.0582090    2.4044147   -1.5614237 
O    -5.4297437    1.9089200    2.8050590 
H    -5.9900006    2.7499355    2.7201710 
O     1.3379697    3.7506641   -1.7544547 
N    -0.7345587    0.6978873   -1.2904008 
H    -0.9946439    2.8044301   -1.3923670 
H    -0.3228778   -0.0056938   -0.6331877 
H    -1.7744876    0.6380249   -1.1693028 
N     2.1023006    1.4076197   -1.6311540 
C     3.5494919    1.7155160   -1.7588896 
H     1.7919054    0.4118557   -1.6450515 
C     3.9279109    3.1838005   -2.0263477 
O     3.8700701    3.7093190   -3.3124454 
O     4.3927637    4.0087861   -0.9966110 
H     4.2407924    3.6040390   -0.0855662 
C     4.1971350    0.7362410   -2.7711318 
H     4.0117982    1.4697495   -0.7790105 
C     3.6640435    0.8744413   -4.1877096 
H     4.0177876   -0.3078166   -2.4320364 
H     5.3002005    0.8648161   -2.7553121 
C     4.2853146    1.4369780   -5.2408869 
C     5.5014033    2.0389252   -5.3218657 
C     5.9030759    2.5333606   -6.5280262 
C     5.0953717    2.4193325   -7.6249284 
C     3.8795860    1.8124608   -7.5218974 
C     3.5033003    1.3330383   -6.3177689 
H     6.1399696    2.1490368   -4.4518946 
H     6.8670842    3.0287023   -6.6151196 
H     5.4206926    2.8199331   -8.5816947 
H     3.2247118    1.7173539   -8.3813231 
N     2.2877941    0.6704018   -6.0036742 
C     2.4725462    0.4078909   -4.6069028 
H     1.4836885    0.4279179   -6.6266883 
H     1.7458670   -0.1058236   -3.9839661 
