48
Energy =
C     0.7229121    5.4677970   -6.8537402 
C     0.8043604    4.7183964   -5.7252175 
C     1.2902097    6.7007167   -6.9004206 
C     1.9378774    7.1776032   -5.8160051 
C     2.0229371    6.4353323   -4.6837846 
C     1.4628931    5.1930375   -4.6241501 
H     0.3381018    3.7413209   -5.7370123 
H     2.3883466    8.1629300   -5.8668173 
H     2.5511920    6.8446960   -3.8253957 
H     0.2006496    5.0766712   -7.7203094 
C     1.5756891    4.4211389   -3.3127007 
C     1.2741724    2.8975770   -3.3664898 
H     0.9220235    4.8990016   -2.5515890 
H     2.6174801    4.5617772   -2.9438177 
C     2.0494835    2.1480487   -2.2942014 
O     1.2198561    7.4981447   -8.0473670 
H     0.7282601    7.0639823   -8.8208181 
O     1.9538280    2.5335399   -0.9608741 
N    -0.1725195    2.6504165   -3.2162051 
H     1.6333410    2.4733334   -4.3335267 
H    -0.4568828    2.8329139   -2.2220610 
H    -0.7318444    3.3103391   -3.8031976 
N     3.0067246    1.1481722   -2.6606679 
C     4.4182738    1.4341271   -2.3436841 
H     2.6768252    0.2956713   -3.1673874 
C     4.8566750    2.7920917   -2.8932144 
O     5.2175452    2.9185931   -4.2286190 
O     4.8450965    3.9394966   -2.1010393 
H     4.4912500    3.7501619   -1.1725857 
C     5.2944049    0.2848864   -2.8842492 
H     4.5336060    1.4702760   -1.2363650 
C     6.7410022    0.4431644   -2.4689307 
H     5.2227633    0.2558973   -3.9956795 
H     4.9053513   -0.6896764   -2.5176546 
C     7.2973280    0.0305841   -1.3196197 
C     6.7442850   -0.6398919   -0.2761724 
C     7.5340187   -0.9334011    0.7964532 
C     8.8476936   -0.5533014    0.8119448 
C     9.3795161    0.1243511   -0.2448670 
C     8.5791277    0.3999892   -1.2958078 
H     5.6991922   -0.9356321   -0.2821088 
H     7.1156314   -1.4689858    1.6454389 
H     9.4695325   -0.7879409    1.6723200 
H    10.4173557    0.4400559   -0.2450833 
N     8.9264046    1.1085966   -2.4770092 
C     7.6745426    1.1015098   -3.1792072 
H     9.8463390    1.5181089   -2.7599963 
H     7.4903944    1.6045570   -4.1295492 
