48
 energy: -9.291704390799 gnorm: 0.000977410570 xtb: 6.6.0 (2ccbbd7)
C           -3.14488953823628        0.75102524168673        1.85469484366821
C           -1.81929195342997        0.76954698454477        1.49008959246391
C           -4.05726360091528        1.62215531090569        1.25871345241458
C           -3.58889921847306        2.50684608494805        0.28783311950236
C           -2.26225193637458        2.51939145164670       -0.07068054793316
C           -1.35703545462303        1.65596049085206        0.52795442736173
H           -1.12495628313824        0.08994805434192        1.95360868192759
H           -4.29219768884564        3.17696055233618       -0.17318108760654
H           -1.91316905366883        3.20466603938564       -0.82410949765448
H           -3.49179644347176        0.06291592985109        2.60438901566242
C            0.07768241467316        1.65278770283098        0.10395117052943
C            0.30451332726829        0.93731876974780       -1.22927698388893
H            0.69254376620211        1.17767474577057        0.87380684592360
H            0.44036862388856        2.68376178387268        0.03307619496579
C            1.73645347683326        1.11297267384253       -1.68159478324658
O           -5.39603335393650        1.62876418026964        1.60121506627005
H           -5.56816876324668        0.96048953419023        2.29915603123437
O            2.00156417189654        2.05138129205155       -2.40783181194405
N           -0.08940209479409       -0.46526611026205       -1.18697228965729
H           -0.32021207726085        1.41882977021832       -1.99859028207878
H            0.45918284870194       -0.96264332304394       -0.49865366522316
H           -1.05900789797145       -0.54964382086899       -0.90875030820282
N            2.69049653125520        0.23897736459203       -1.20916347009505
C            4.12108688086784        0.38474798230666       -1.49583271414617
H            2.47355806174322       -0.39252842369919       -0.43685516704857
C            4.72721942831311        1.43453036687636       -0.58352225991181
O            5.71898376872366        1.14575844101165        0.05060640539436
O            4.10434987316810        2.63409076329056       -0.58534725014863
H            3.33569759622508        2.57692790984307       -1.20430121933462
C            4.36847039881636        0.69103654692950       -2.97459380029319
H            4.61169699819780       -0.57088971187785       -1.25802243360959
C            5.80254546243428        0.73156204586238       -3.39248480736568
H            3.90046520788753        1.64982269899018       -3.21354686544493
H            3.83838288442015       -0.05087046081672       -3.58006821757359
C            6.26893855705992        0.66029065898516       -4.73854663530523
C            5.60879489540068        0.51471203328277       -5.97084649668388
C            6.35562890651899        0.49831019829949       -7.11656158845203
C            7.75365328030345        0.62598693411636       -7.07531618608409
C            8.41720209968222        0.77307056115075       -5.88793342432928
C            7.67075063388427        0.79180257029174       -4.70288762755910
H            4.53741928280491        0.42462724273694       -5.99823095963898
H            5.86453409122812        0.38780416211757       -8.06918768468391
H            8.31186294516310        0.61060747624634       -7.99694251973920
H            9.48654280812253        0.87695970668734       -5.84704743625924
N            8.03962069769534        0.94446750553784       -3.37837334495112
C            6.91003905771696        0.91892460529113       -2.60175358350107
H            8.99413299362269        1.10326711039858       -3.05069115861087
H            6.90045911922157        1.04510698247078       -1.53135629620851
