48
Energy =
C    -0.8139624    0.4446798    2.7397267 
C     0.0381825   -0.1023476    1.8361544 
C    -0.7310846    0.1011773    4.0525628 
C     0.2067108   -0.7857475    4.4532723 
C     1.0624036   -1.3343178    3.5553367 
C     0.9829091   -0.9979902    2.2373554 
H    -0.0397152    0.1895488    0.7929042 
H     0.2651515   -1.0475497    5.5038329 
H     1.8131045   -2.0398421    3.8999950 
H    -1.5596326    1.1603061    2.4094438 
C     1.9476566   -1.5988269    1.2336447 
C     3.1780509   -0.7001666    0.9570361 
H     1.4110582   -1.8057722    0.2831064 
H     2.3002010   -2.5918421    1.5897811 
C     2.8017153    0.5964192    0.2484424 
O    -1.5958566    0.6418002    5.0087849 
H    -2.2522616    1.3188639    4.6344362 
O     2.9912764    1.8290186    0.8617699 
N     3.9482415   -0.4670086    2.1920424 
H     3.8452336   -1.2309982    0.2467308 
H     3.4250926    0.1825376    2.8277563 
H     4.1102218   -1.3657136    2.7023365 
N     2.3076008    0.5748402   -1.0992234 
C     3.2038851    1.0900659   -2.1530129 
H     1.3870634    0.1303113   -1.3095316 
C     2.6313484    2.3606703   -2.7805007 
O     2.4040519    2.4197447   -4.1513243 
O     2.3614334    3.4941344   -2.0184607 
H     2.5174745    3.3237500   -1.0341279 
C     3.4362518   -0.0125541   -3.2136417 
H     4.1900391    1.3988582   -1.7293869 
C     4.0183609   -1.2728541   -2.6164610 
H     4.1322730    0.3658030   -3.9971498 
H     2.4844247   -0.2324622   -3.7436367 
C     3.3569069   -2.3965348   -2.2903231 
C     2.0409793   -2.7078078   -2.4236061 
C     1.6137472   -3.9240091   -1.9777245 
C     2.4960255   -4.8002300   -1.4093633 
C     3.8118893   -4.4669820   -1.2859488 
C     4.2115302   -3.2609855   -1.7399093 
H     1.3346659   -2.0147143   -2.8686318 
H     0.5659504   -4.1989895   -2.0754544 
H     2.1479530   -5.7680168   -1.0564141 
H     4.5248264   -5.1492434   -0.8351260 
N     5.5203939   -2.7133383   -1.6800241 
C     5.3075211   -1.4228456   -2.2662981 
H     6.4000929   -3.1357236   -1.3026375 
H     6.0812899   -0.6672179   -2.3874111 
