48
Energy =
C     1.3519478    7.1946810   -2.5320755 
C     1.4028467    6.0893771   -1.7460725 
C     2.4930005    7.7087409   -3.0636851 
C     3.6795031    7.1157645   -2.8021492 
C     3.7367899    6.0120967   -2.0166799 
C     2.5961442    5.4858388   -1.4859787 
H     0.4811448    5.6920502   -1.3267801 
H     4.5847249    7.5371024   -3.2280078 
H     4.7036257    5.5612149   -1.8078625 
H     0.3957421    7.6671343   -2.7342961 
C     2.6517060    4.2417390   -0.6248931 
C     2.5042260    2.9349869   -1.4469345 
H     1.8694537    4.2796093    0.1662009 
H     3.6241737    4.2238610   -0.0763297 
C     2.9523557    1.7490873   -0.6066333 
O     2.4746981    8.8431945   -3.8782164 
H     1.5506358    9.2364720   -4.0245507 
O     2.4549365    1.6167684    0.6852452 
N     1.1172513    2.7499807   -1.9136402 
H     3.1863729    2.9663214   -2.3231760 
H     0.4586878    2.7492236   -1.0965407 
H     0.8391301    3.5149645   -2.5696556 
N     3.6711503    0.6373145   -1.1690001 
C     4.9833312    0.9387091   -1.8154451 
H     3.0031791    0.0417314   -1.6988131 
C     5.6138053    2.2588006   -1.3492205 
O     5.5752881    3.3812460   -2.1691481 
O     6.1048799    2.4152764   -0.0592029 
H     5.9550708    1.5840907    0.4965140 
C     5.0011814    0.7814839   -3.3803828 
H     5.6907252    0.1696195   -1.4329502 
C     3.7036405    0.3955176   -4.0589649 
H     5.7694292    0.0249723   -3.6531920 
H     5.3764008    1.7082839   -3.8682539 
C     3.2026152   -0.8431385   -4.1891435 
C     3.6906693   -2.0290061   -3.7435382 
C     2.9741497   -3.1609309   -3.9993924 
C     1.7940742   -3.0908036   -4.6873788 
C     1.3226971   -1.8875548   -5.1225642 
C     2.0503147   -0.7822838   -4.8576599 
H     4.6229756   -2.0832111   -3.1885619 
H     3.3415598   -4.1233212   -3.6512315 
H     1.2278596   -3.9973877   -4.8854613 
H     0.3869497   -1.8138891   -5.6660456 
N     1.7378723    0.5580104   -5.2104612 
C     2.8613395    1.2563373   -4.6569432 
H     0.9134907    0.9286731   -5.7362409 
H     3.0160740    2.3296949   -4.7333034 
