48
Energy =
C    -0.9881122    4.2416228   -6.3714216 
C    -0.2480755    3.6271976   -5.4146036 
C    -0.3894020    4.7313073   -7.4894456 
C     0.9486508    4.6034778   -7.6419299 
C     1.6947096    3.9899514   -6.6884760 
C     1.0985903    3.4933945   -5.5683966 
H    -0.7422553    3.2444469   -4.5249457 
H     1.4154996    5.0011072   -8.5374898 
H     2.7698950    3.9057664   -6.8326403 
H    -2.0601800    4.3418830   -6.2396707 
C     1.9246912    2.8239902   -4.4904861 
C     2.1674518    3.7555909   -3.2716863 
H     2.9003252    2.4877467   -4.9106748 
H     1.3796374    1.9107767   -4.1681721 
C     2.9605086    3.1341116   -2.1141899 
O    -1.1234463    5.3697903   -8.4936369 
H    -2.1186512    5.4297356   -8.3068554 
O     3.1881627    3.9112691   -0.9867229 
N     2.8091058    5.0072267   -3.7100232 
H     1.1821700    4.0050708   -2.8090537 
H     3.6033331    4.8240217   -4.3700339 
H     2.1168704    5.6162333   -4.2054848 
N     3.4099509    1.7628187   -2.0806633 
C     4.8662914    1.6495432   -2.3094224 
H     2.8685903    1.1475577   -2.7223090 
C     5.2560556    2.1398105   -3.6897893 
O     6.5423729    2.3582524   -4.1712667 
O     5.6664342    3.4447226   -3.9690571 
H     5.4901766    4.0716688   -3.1837580 
C     5.2699817    0.1783227   -2.0897178 
H     5.4157122    2.2819491   -1.5707740 
C     6.7723167   -0.0128494   -2.1204517 
H     4.7764784   -0.4721622   -2.8428601 
H     4.8922317   -0.1512528   -1.0962083 
C     7.5131511   -0.4731539   -3.1420690 
C     7.1342296   -0.9020309   -4.3739788 
C     8.0998284   -1.3219464   -5.2397780 
C     9.4158120   -1.3091973   -4.8679904 
C     9.7734178   -0.8755629   -3.6260556 
C     8.7995473   -0.4648068   -2.7866073 
H     6.0932830   -0.9122263   -4.6811262 
H     7.8184262   -1.6606828   -6.2327594 
H    10.1793946   -1.6394321   -5.5675226 
H    10.8125216   -0.8530720   -3.3161647 
N     8.9605146    0.0214415   -1.4611357 
C     7.5991841    0.2981130   -1.1062195 
H     9.8331631    0.1323700   -0.8960711 
H     7.2849684    0.7202108   -0.1548015 
