48
Energy =
C    -3.0927115    2.1857385    1.8726151 
C    -1.9480229    2.2998885    1.1524430 
C    -4.2301153    1.7318467    1.2811167 
C    -4.2135113    1.3947828   -0.0284917 
C    -3.0717053    1.5066753   -0.7532244 
C    -1.9317669    1.9644835   -0.1671180 
H    -1.0458359    2.6600293    1.6399514 
H    -5.1265686    1.0332417   -0.4883963 
H    -3.0765814    1.2284994   -1.8040432 
H    -3.0954803    2.4570381    2.9227770 
C    -0.6540626    2.0683991   -0.9697745 
C     0.0458315    0.6974929   -1.1218112 
H     0.0386132    2.8065343   -0.5079873 
H    -0.8970938    2.4730454   -1.9787605 
C     1.1904197    0.7718604   -2.1217853 
O    -5.4258391    1.6004303    1.9948331 
H    -5.3573362    1.8790653    2.9675347 
O     1.1070539    0.0213047   -3.2931195 
N     0.5066521    0.1885581    0.1838332 
H    -0.6763712   -0.0288098   -1.5658975 
H     0.9602925    0.9572893    0.7314452 
H    -0.3248371   -0.1228362    0.7397540 
N     2.4455640    1.4052758   -1.7972110 
C     3.4944353    0.3834862   -1.5648483 
H     2.3056378    2.0031922   -0.9507442 
C     4.4583706    0.7902536   -0.4446615 
O     5.5796119    1.5636630   -0.7239608 
O     4.2134395    0.4378582    0.8833913 
H     3.3430469   -0.0627265    0.9884369 
C     4.2276313    0.1363148   -2.9080293 
H     3.0356912   -0.5748174   -1.2156384 
C     4.6368166   -1.3093143   -3.0627153 
H     5.0972756    0.8162516   -3.0344540 
H     3.5493494    0.4011079   -3.7514863 
C     5.8122941   -1.8620794   -2.7264197 
C     6.9314187   -1.2898814   -2.2127696 
C     8.0034212   -2.0893477   -1.9453425 
C     7.9420741   -3.4331862   -2.1909857 
C     6.8069080   -3.9863773   -2.7046137 
C     5.7600407   -3.1747063   -2.9622033 
H     6.9855446   -0.2239783   -2.0106916 
H     8.9100441   -1.6546062   -1.5303297 
H     8.8005069   -4.0633314   -1.9719097 
H     6.7399212   -5.0512983   -2.8999219 
N     4.4900834   -3.5495937   -3.4778830 
C     3.8188280   -2.2821701   -3.5029835 
H     4.1427725   -4.4952465   -3.7600393 
H     2.7803798   -2.1323504   -3.8043451 
