48
 energy: -8.963448750721 gnorm: 0.000416574282 xtb: 6.6.0 (2ccbbd7)
C            1.13553100222469       -2.72065512953177        0.09682417606857
C            0.23007210310446       -1.66171214615270        0.05094994496991
C            2.52939838618925       -2.49500064722089        0.04052845570299
C            2.99454499389504       -1.21282319216350       -0.04693997604713
C            2.09769398056070       -0.02377125984948       -0.09112807920347
C            0.63506232319828       -0.36823157992890       -0.03864599296898
H           -0.82562341363157       -1.87213781897702        0.06932313927035
H            4.05836544175665       -1.07096204766048       -0.06184537934733
H            2.29548382975505        0.57515738349062        1.03928903808977
H            0.77720214757836       -3.73156435860997        0.16634411595836
C           -0.36548518757228        0.74069633119895       -0.18747593365968
C            0.27144175493180        2.10778080300434       -0.52291193609759
H           -0.96496389033374        0.81531070499841        0.72637956240658
H           -1.06805992793994        0.48127121597411       -0.98552725788154
C            1.42159928717833        1.95293520214744       -1.46011077445208
O            3.42907343390390       -3.54645434202173        0.07276895495455
H            2.94517580306659       -4.39720482130518        0.15307130490232
O            1.68725791255710        2.84196229315685       -2.49405493168521
N           -0.70564575506903        3.05352460792752       -1.05471925190538
H            0.66989412834010        2.55175099321099        0.40378573026591
H           -0.88306085599245        2.84725447720992       -2.02959762037472
H           -1.58356821686616        2.99934844408511       -0.55062245758098
N            2.34415196800396        0.86775874079278       -1.34286339988715
C            3.80306262043037        1.27516485101347       -1.54660369721877
H            2.18594483730680        0.17855071203194       -2.11141077386052
C            3.99984072486761        2.74092998443682       -1.83342058683548
O            3.03430411519253        3.48964356434987       -2.32486885406558
O            5.23293810354081        3.25142002646666       -1.58386325874298
H            5.83279290636512        2.56515162499078       -1.21568496423331
C            4.45644258243645        0.42049731594589       -2.64500032402997
H            4.31102957539230        1.08493255897788       -0.59175624763285
C            3.73512617143510        0.44738301955455       -3.95423658106078
H            4.52418452101496       -0.61903880177634       -2.30899357244805
H            5.48741431916619        0.75173251977281       -2.80597414527425
C            3.60810718962050       -0.64299653538888       -4.86692787096861
C            4.03338892208734       -1.98259300010148       -4.82343904490604
C            3.72324404602888       -2.80368705625376       -5.87259666606217
C            2.99431183053148       -2.33050099422612       -6.97631085792201
C            2.56885326077727       -1.03172675580774       -7.03986745046744
C            2.87586068598083       -0.17417998202530       -5.97583011711342
H            4.58629832119294       -2.34422528055524       -3.97483612282658
H            4.04056751487883       -3.83317123958281       -5.85354374568728
H            2.76570843503889       -3.00462091766003       -7.78521615302875
H            2.00767568829298       -0.66091617638678       -7.87880010989139
N            2.57483985724671        1.15625556125341       -5.74366550460004
C            3.09241387628812        1.51717612806882       -4.52621101116515
H            2.02297310332207        1.75125489432148       -6.36446306353255
H            2.95174745473795        2.47974628391450       -4.06025383567938
