48
Energy =
C     1.3040876    5.7087182   -2.7722720 
C     0.9632920    4.4038395   -2.9246035 
C     1.7479092    6.1647898   -1.5709142 
C     1.8558422    5.3089885   -0.5305050 
C     1.5064844    4.0060998   -0.6726145 
C     1.0540533    3.5412938   -1.8725263 
H     0.6221192    4.0590564   -3.8970930 
H     2.2421800    5.6746636    0.4146768 
H     1.6219972    3.3377157    0.1752296 
H     1.2243797    6.3871205   -3.6151290 
C     0.6755207    2.0812124   -2.0533589 
C     1.9163464    1.1640252   -2.2372831 
H     0.0096802    1.9837557   -2.9384428 
H     0.0587676    1.7399148   -1.1920817 
C     2.6030016    0.8482575   -0.9128033 
O     2.0868567    7.5079033   -1.3785408 
H     2.0450951    8.0683569   -2.2222406 
O     1.8591773    0.8341735    0.2631445 
N     1.5262885   -0.0828068   -2.9234399 
H     2.6791537    1.6979992   -2.8521252 
H     0.7837774   -0.5771938   -2.3694149 
H     1.1337995    0.1289133   -3.8714310 
N     3.9465475    0.3359319   -0.8680185 
C     5.0187872    1.3325874   -1.1534741 
H     3.9794257   -0.5037277   -1.4896834 
C     4.5693223    2.7924355   -1.0208772 
O     4.1574955    3.4941542   -2.1481345 
O     4.4069169    3.3941862    0.2228388 
H     4.6331278    2.7542329    0.9714282 
C     5.6878746    1.0457175   -2.5219117 
H     5.8007104    1.1964444   -0.3728453 
C     6.9870979    1.8090396   -2.6744262 
H     4.9988486    1.3185452   -3.3497894 
H     5.8981484   -0.0393856   -2.6316410 
C     8.1995679    1.4242308   -2.2455788 
C     8.5770670    0.2853544   -1.6091520 
C     9.8890070    0.1395322   -1.2656148 
C    10.7927429    1.1240207   -1.5559600 
C    10.3894771    2.2614749   -2.1902926 
C     9.0870251    2.3808283   -2.5228212 
H     7.8595622   -0.4932602   -1.3689046 
H    10.2168481   -0.7621377   -0.7543192 
H    11.8357334    1.0021006   -1.2754740 
H    11.0913559    3.0555152   -2.4208603 
N     8.4624449    3.4831493   -3.1643693 
C     7.1000747    3.0356180   -3.2143503 
H     8.8815154    4.3744972   -3.5146278 
H     6.2671482    3.6283928   -3.5906308 
