48
 energy: -9.064767216659 gnorm: 0.000267278786 xtb: 6.6.0 (2ccbbd7)
C           -3.82157403875260        1.78178946948614       -0.21853359516699
C           -2.55772444173567        2.06403752067968       -0.68087200879483
C           -4.46642491787661        0.60126591938965       -0.58950759200219
C           -3.79435882035315       -0.28051353935813       -1.43551204526811
C           -2.53013426833354        0.00766642547293       -1.89140144817168
C           -1.89529738872932        1.18590204510842       -1.52682665769189
H           -2.06792186929132        2.97579398886702       -0.38441039892684
H           -4.28991173846451       -1.19164033813820       -1.71948652370141
H           -2.01828938208421       -0.68493373598627       -2.53745745851291
H           -4.32598156745970        2.46944955286014        0.43641492719744
C           -0.50135782958519        1.47084350396983       -1.99084279533713
C            0.56257923706203        0.77848654017609       -1.13455802535611
H           -0.32385459561278        2.54999303837733       -1.98261636558644
H           -0.39191427566796        1.16142299342419       -3.03549515908703
C            1.94526432814837        0.96089335762163       -1.72082684556507
O           -5.73671940299698        0.28814651254835       -0.14382281939265
H           -6.07509403742804        1.00367335983273        0.43687850726190
O            2.55821320105605       -0.01716846923092       -2.09878850084233
N            0.53170939669970        1.21265546500245        0.25546850343077
H            0.36566254242304       -0.30558692749053       -1.13446853437843
H            0.77113407310524        2.19299334151738        0.32417054037566
H           -0.39638782987236        1.09903480791829        0.64320012538834
N            2.43826317413659        2.24379698539677       -1.80400179909104
C            3.84926697498397        2.50890441903150       -2.08105672906756
H            1.97055995053316        3.00388958706892       -1.30874625606651
C            4.05958961953884        3.98864118194863       -2.21357307617876
O            5.22539599035864        4.54297633876716       -1.77401879037418
O            3.05322554387121        4.71883655603601       -2.80256594220960
H            2.35896323737648        4.11134789634510       -3.15230297003971
C            4.36021484750425        1.75673113437892       -3.32655535730235
H            4.40430804919278        2.15047800605891       -1.20158807095636
C            5.75077618919618        1.22028533388329       -3.19716544797492
H            4.29223532488296        2.40760132679498       -4.20380509431474
H            3.68626936892103        0.91667836991354       -3.52490259939949
C            6.88372228165167        1.85079487435351       -2.59976232601194
C            7.06871368480833        3.08020994165222       -1.95559951554915
C            8.30072472713902        3.40139502553843       -1.47042869751361
C            9.38382223857855        2.51709775485528       -1.60382944792227
C            9.23317313714771        1.30649776112658       -2.22328087006398
C            7.97173757429884        0.96362791192835       -2.72765545539010
H            6.10966111330489        3.84109579686789       -1.84550849189744
H            8.44302477179381        4.34886409184631       -0.97793422539592
H           10.34649842994196        2.79855688523449       -1.21038936929595
H           10.05434067303007        0.62045880915951       -2.32858438169324
N            7.51231608654325       -0.16326353720608       -3.38420979892719
C            6.17731680050258       -0.00055740966070       -3.65990328725300
H            8.08126817982967       -0.98327302894090       -3.60261247870029
H            5.55820339647700       -0.73167012661922       -4.15457449583904
