48
Energy =
C     3.2823401    6.2736597    0.1016820 
C     2.1671872    5.5017640    0.1515146 
C     4.1224332    6.1925965   -0.9642316 
C     3.8413177    5.3385983   -1.9725138 
C     2.7169929    4.5791494   -1.9370675 
C     1.8750294    4.6495243   -0.8704074 
H     1.5155404    5.5659505    1.0191186 
H     4.5416387    5.2595353   -2.7971215 
H     2.5088424    3.8940126   -2.7549955 
H     3.5036914    6.9510391    0.9197192 
C     0.6460710    3.7633524   -0.8011817 
C     0.9629516    2.3026703   -0.3886009 
H     0.1254691    3.7712144   -1.7852642 
H    -0.0866220    4.1836779   -0.0774946 
C     1.6815766    1.5306948   -1.4896549 
O     5.2749119    6.9798806   -1.0508767 
H     5.4420027    7.5580923   -0.2342984 
O     1.0671965    1.4772508   -2.7382172 
N     1.6783543    2.2674141    0.9000651 
H    -0.0034062    1.7624057   -0.2635047 
H     2.6469774    2.6498649    0.7830434 
H     1.1848606    2.8602606    1.6072384 
N     2.6425182    0.5161897   -1.1462689 
C     3.8438892    0.4865470   -2.0203312 
H     2.1431251   -0.3999966   -1.1295601 
C     4.5260804    1.8513605   -2.1160336 
O     4.6087805    2.5148402   -3.3375019 
O     5.0421965    2.4843186   -0.9881015 
H     4.8751524    1.9330548   -0.1564465 
C     3.5584747   -0.1190986   -3.4207343 
H     4.5964944   -0.1667501   -1.5266884 
C     2.9977692   -1.5211907   -3.3548958 
H     4.5019848   -0.1426942   -4.0089633 
H     2.8749298    0.5409321   -3.9959326 
C     3.6805572   -2.6497720   -3.1098619 
C     5.0079552   -2.8344052   -2.8921797 
C     5.4557345   -4.1016180   -2.6592098 
C     4.5803210   -5.1524330   -2.6471986 
C     3.2513655   -4.9422766   -2.8682921 
C     2.8331388   -3.6797351   -3.0971612 
H     5.7040566   -2.0009130   -2.9016595 
H     6.5140465   -4.2769006   -2.4815148 
H     4.9448264   -6.1592372   -2.4598473 
H     2.5435513   -5.7640688   -2.8606534 
N     1.5025532   -3.2460385   -3.3424909 
C     1.6974818   -1.8335751   -3.4956566 
H     0.6217642   -3.8072093   -3.3953618 
H     0.8988599   -1.1145042   -3.6736595 
