48
Energy =
C    -2.2480877    5.5154461   -1.1013757 
C    -1.3445779    5.0330139   -1.9919001 
C    -1.9097688    5.6575278    0.2078097 
C    -0.6667455    5.3183840    0.6163666 
C     0.2415016    4.8398868   -0.2700324 
C    -0.0943055    4.6790414   -1.5804864 
H    -1.6312897    4.9415476   -3.0352297 
H    -0.4077209    5.4328022    1.6627779 
H     1.2356115    4.5718612    0.0803994 
H    -3.2409232    5.7909593   -1.4398072 
C     0.9285677    4.1577930   -2.5737591 
C     1.0213581    2.6062607   -2.6807073 
H     1.9275494    4.5713675   -2.2985471 
H     0.7181995    4.5739262   -3.5822978 
C     1.4719887    1.9349067   -1.3882203 
O    -2.8168123    6.1560883    1.1493696 
H    -3.7316623    6.3676083    0.7671189 
O     0.6836096    1.9905219   -0.2466215 
N    -0.2319814    2.0018268   -3.1760203 
H     1.8361094    2.4017118   -3.4134743 
H    -0.9569213    2.7134970   -3.4169372 
H    -0.0475227    1.4469670   -4.0433443 
N     2.5700760    1.0100149   -1.3851796 
C     3.9514504    1.4825293   -1.6384985 
H     2.3226217   -0.0037544   -1.3442607 
C     4.0841317    3.0054928   -1.6366275 
O     4.3234044    3.6883271   -2.8227976 
O     3.8629225    3.7499783   -0.4817699 
H     3.5904222    3.1564709    0.2919964 
C     4.4841087    0.8581338   -2.9497459 
H     4.5979028    1.1425883   -0.7983617 
C     4.6122646   -0.6463048   -2.8578374 
H     5.4867623    1.2847194   -3.1846188 
H     3.8342436    1.1420024   -3.8031564 
C     3.7162762   -1.5630869   -3.2599873 
C     2.5014969   -1.3989233   -3.8458194 
C     1.7710386   -2.5108715   -4.1461637 
C     2.2591462   -3.7559057   -3.8603759 
C     3.4799919   -3.8965377   -3.2701158 
C     4.1838626   -2.7814807   -2.9829731 
H     2.1058054   -0.4119436   -4.0632867 
H     0.7930205   -2.4068626   -4.6104454 
H     1.6695926   -4.6373975   -4.1002297 
H     3.8792359   -4.8765128   -3.0314696 
N     5.4575692   -2.7073305   -2.3584493 
C     5.6587091   -1.2890162   -2.3105362 
H     6.0778633   -3.4806069   -2.0248737 
H     6.5353232   -0.8068368   -1.8831540 
