48
Energy =
C     3.8005391   -1.6198806    1.8404281 
C     3.0115727   -0.5938116    1.4325407 
C     3.2463505   -2.7206201    2.4149298 
C     1.9055519   -2.7849870    2.5777904 
C     1.1129209   -1.7613308    2.1705022 
C     1.6622350   -0.6582414    1.5910067 
H     3.4662945    0.2797916    0.9825811 
H     1.4756642   -3.6676269    3.0377609 
H     0.0382211   -1.8340844    2.3093879 
H     4.8750230   -1.5575710    1.7062840 
C     0.7810306    0.4803466    1.1176106 
C     0.3275962    0.3367292   -0.3577408 
H     1.3173813    1.4478594    1.2473051 
H    -0.1167268    0.5534440    1.7704881 
C     1.4883776    0.4613918   -1.3407282 
O     4.0302318   -3.7956114    2.8478215 
H     5.0232520   -3.6695551    2.6866973 
O     1.9151136   -0.6346154   -2.0869946 
N    -0.4456103   -0.9013516   -0.5565252 
H    -0.3451645    1.1913486   -0.5957189 
H     0.1962045   -1.7300805   -0.5150941 
H    -1.1616278   -1.0107596    0.1976420 
N     2.0305341    1.7547661   -1.6501800 
C     3.4960942    1.8588708   -1.7369561 
H     1.4059473    2.5935543   -1.6696390 
C     3.9886066    3.1714440   -1.1297410 
O     3.7140351    4.3685083   -1.7823461 
O     4.7136098    3.2131596    0.0619678 
H     4.8993426    2.2953215    0.4345624 
C     3.8935533    1.7394703   -3.2185000 
H     3.9737533    1.0203639   -1.1826777 
C     5.3916091    1.6186982   -3.3776728 
H     3.5026134    2.6136364   -3.7868439 
H     3.4015350    0.8447925   -3.6622023 
C     6.1197473    0.5005817   -3.2370436 
C     5.7205803   -0.7683559   -2.9640683 
C     6.6743609   -1.7367060   -2.8528074 
C     7.9970308   -1.4252245   -3.0095743 
C     8.3738991   -0.1421356   -3.2769196 
C     7.4110616    0.7973588   -3.3860356 
H     4.6702017   -1.0175375   -2.8311382 
H     6.3798706   -2.7610239   -2.6360411 
H     8.7510360   -2.2029178   -2.9171023 
H     9.4187663    0.1233502   -3.3963513 
N     7.5870646    2.1856548   -3.6324345 
C     6.2292061    2.6470097   -3.5996511 
H     8.4697099    2.7225188   -3.7953307 
H     5.9282943    3.6906644   -3.6928130 
