48
Energy =
C    -3.5806008   -0.4582009    0.3616388 
C    -2.2478683   -0.3283043    0.5823372 
C    -4.0304249   -1.1823760   -0.6978856 
C    -3.1418527   -1.7713801   -1.5300996 
C    -1.8079388   -1.6444239   -1.3144059 
C    -1.3528459   -0.9239029   -0.2528290 
H    -1.9015324    0.2559240    1.4314206 
H    -3.5134570   -2.3446845   -2.3721333 
H    -1.1106202   -2.1212440   -1.9975636 
H    -4.2848351    0.0197553    1.0339366 
C     0.1320845   -0.7618908   -0.0149909 
C     0.6496520    0.6175377   -0.4850885 
H     0.7009920   -1.5741557   -0.5177622 
H     0.3311767   -0.8778238    1.0744687 
C     2.0726720    0.8497799   -0.0144058 
O    -5.3969014   -1.3354129   -0.9548036 
H    -5.9955651   -0.8640683   -0.2855666 
O     2.3217693    1.7534007    0.7963036 
N     0.5575987    0.7439375   -1.9489717 
H     0.0380985    1.4224395   -0.0110097 
H     1.0299623   -0.0700606   -2.4056790 
H    -0.4481179    0.7338907   -2.2370961 
N     3.1757092    0.1287214   -0.5889166 
C     4.3438340    0.9801591   -0.8685257 
H     3.1215867   -0.8910294   -0.8053507 
C     4.2803691    2.2461487   -0.0002008 
O     5.2360912    3.2484858   -0.1338396 
O     3.3608389    2.3851904    0.8223622 
H     3.1090559    1.6145535    1.4049201 
C     4.3443918    1.2982413   -2.3779953 
H     5.2704272    0.4371434   -0.5813734 
C     5.6888975    1.7998052   -2.8579426 
H     3.5458851    2.0430732   -2.5998651 
H     4.0739755    0.3861621   -2.9526544 
C     6.7444100    1.0484555   -3.2080567 
C     6.8788266   -0.3025460   -3.2376731 
C     8.0759689   -0.8258982   -3.6293152 
C     9.1095260   -0.0010280   -3.9783470 
C     8.9524401    1.3526942   -3.9367965 
C     7.7578986    1.8461510   -3.5485917 
H     6.0613791   -0.9588108   -2.9541115 
H     8.2102328   -1.9044335   -3.6611827 
H    10.0615779   -0.4257934   -4.2865992 
H     9.7637210    2.0211300   -4.2045278 
N     7.3929427    3.2130143   -3.4238277 
C     6.0386418    3.0941628   -2.9625273 
H     7.9553328    4.0717009   -3.6240753 
H     5.4035150    3.9327559   -2.6765679 
