48
Energy =
C    -2.9704917   -0.1462912    0.2811241 
C    -1.7207902    0.3722934    0.1742981 
C    -3.5309572   -0.8012720   -0.7707638 
C    -2.8364178   -0.9316058   -1.9238700 
C    -1.5870510   -0.4146462   -2.0366328 
C    -1.0207857    0.2395384   -0.9852443 
H    -1.2842631    0.8928898    1.0230572 
H    -3.2949921   -1.4550746   -2.7555875 
H    -1.0461753   -0.5298357   -2.9727062 
H    -3.5200818   -0.0361565    1.2097696 
C     0.3681926    0.8225564   -1.1064188 
C     0.3602183    2.3569874   -1.2735158 
H     0.8959888    0.3772703   -1.9716650 
H     0.9540128    0.5452885   -0.2012680 
C     1.7753055    2.9110568   -1.2583471 
O    -4.8155575   -1.3487009   -0.6938686 
H    -5.2718128   -1.2055105    0.2005993 
O     2.1601422    3.7796333   -0.2419296 
N    -0.3451017    2.7464743   -2.5066876 
H    -0.1533521    2.8199285   -0.3979331 
H    -0.0101014    2.1716373   -3.3154864 
H    -1.3695286    2.5579847   -2.3976023 
N     2.7116563    2.5848736   -2.2985747 
C     4.0178059    2.0304337   -1.8923084 
H     2.4165585    2.6655686   -3.2977823 
C     5.1545201    2.6684430   -2.6779660 
O     5.9530338    3.6395888   -2.0825031 
O     5.4261584    2.2778662   -3.9886347 
H     4.7017788    1.4621846   -4.3440920 
C     4.0185607    0.4883022   -2.0229843 
H     4.2274255    2.2792855   -0.8255070 
C     3.5294311   -0.0206757   -3.3773595 
H     3.3923209    0.0916472   -1.1993571 
H     5.0479645    0.0995869   -1.8535179 
C     2.6910791   -1.0528319   -3.5633470 
C     2.1533264   -1.9049394   -2.6452496 
C     1.2994574   -2.8762613   -3.0728329 
C     1.0018831   -2.9942272   -4.3983675 
C     1.5609870   -2.1436576   -5.3016501 
C     2.4026530   -1.1849410   -4.8554536 
H     2.3866743   -1.8335830   -1.5885829 
H     0.8563071   -3.5629759   -2.3550876 
H     0.3227700   -3.7737602   -4.7351682 
H     1.3399943   -2.2306968   -6.3605157 
N     3.0655883   -0.2280262   -5.6652433 
C     3.8968057    0.5588266   -4.7454763 
H     2.9658638   -0.1195419   -6.7016845 
H     4.3352990    1.1942929   -5.5447950 
