48
Energy =
C     2.5437908   -3.2086672   -1.0878033 
C     1.4094455   -2.4636688   -1.0776158 
C     3.2024080   -3.4349434   -2.2557406 
C     2.7147569   -2.9229344   -3.4081377 
C     1.5807977   -2.1782045   -3.4040002 
C     0.9231755   -1.9370324   -2.2360588 
H     0.8997002   -2.2818064   -0.1348658 
H     3.2477410   -3.1104309   -4.3341278 
H     1.2144487   -1.7642799   -4.3406566 
H     2.9259829   -3.6178252   -0.1587093 
C    -0.3007604   -1.0452537   -2.2093032 
C     0.0358308    0.3799555   -1.6993301 
H    -1.0643579   -1.5129547   -1.5503462 
H    -0.7627717   -0.9795868   -3.2210176 
C     0.9018098    1.1823660   -2.6750200 
O     4.3826887   -4.1827187   -2.2980736 
H     4.6786642   -4.5389181   -1.3959309 
O     1.0209831    0.7870579   -4.0040569 
N    -1.2061850    1.1067866   -1.3964474 
H     0.6230095    0.2913955   -0.7578565 
H    -1.7935641    1.1734906   -2.2632330 
H    -1.7614553    0.5845201   -0.6787282 
N     1.6981629    2.2923121   -2.2142446 
C     3.1454088    2.0303660   -1.9675423 
H     1.2389379    2.7002943   -1.3672737 
C     3.9856628    3.0514425   -2.7370924 
O     4.7447324    2.6605611   -3.8347323 
O     4.0179410    4.3916545   -2.3519826 
H     3.3122828    4.5911916   -1.6592947 
C     3.5887959    0.5659350   -2.2600931 
H     3.3583561    2.2283797   -0.8926242 
C     5.0171352    0.2839290   -1.8381576 
H     3.4361822    0.3473852   -3.3409337 
H     2.9497215   -0.1369666   -1.6946021 
C     6.0603759   -0.0248966   -2.6296983 
C     6.1353585   -0.1326612   -3.9826323 
C     7.3312693   -0.4751046   -4.5416374 
C     8.4227308   -0.7058007   -3.7518986 
C     8.3260075   -0.5928150   -2.3974257 
C     7.1332285   -0.2498107   -1.8673359 
H     5.2793269    0.0617109   -4.6207500 
H     7.4173400   -0.5594150   -5.6224329 
H     9.3722052   -0.9774420   -4.2063677 
H     9.1827573   -0.7724581   -1.7570207 
N     6.8238510   -0.0897391   -0.4902847 
C     5.4346201    0.2507061   -0.5592644 
H     7.4457782   -0.1993765    0.3433202 
H     4.8068822    0.4345879    0.3092810 
