48
Energy =
C    -2.1544202    2.9562047    2.2223523 
C    -1.6519789    2.0310863    1.3662624 
C    -1.3220879    3.8280644    2.8517758 
C     0.0086698    3.7685248    2.6183913 
C     0.5166535    2.8456649    1.7625537 
C    -0.3117716    1.9681230    1.1331758 
H    -2.3302736    1.3445922    0.8662969 
H     0.6608081    4.4708312    3.1258253 
H     1.5883718    2.8135611    1.5863443 
H    -3.2234413    2.9971706    2.4004924 
C     0.2527447    0.9488843    0.1683901 
C     0.5662542    1.5590141   -1.2189966 
H    -0.4461655    0.0906015    0.0455607 
H     1.1809546    0.5175840    0.6057447 
C     1.3688493    0.5800093   -2.0666488 
O    -1.8066897    4.7933107    3.7404411 
H    -2.8138047    4.7746370    3.8581616 
O     0.8355407   -0.6844465   -2.2755568 
N    -0.6733441    1.9493155   -1.9113356 
H     1.2006202    2.4645076   -1.0860872 
H    -1.3017473    1.1147982   -1.9970317 
H    -1.1801027    2.6781742   -1.3579170 
N     2.5289026    1.0629235   -2.7853898 
C     3.3972326    0.1956796   -3.6400551 
H     3.1396273    1.5298995   -2.0768072 
C     3.7021952    0.9293720   -4.9389324 
O     5.0142979    0.9819791   -5.3944474 
O     2.6943473    1.4834152   -5.7283554 
H     1.7945057    1.4182068   -5.2716339 
C     2.8952441   -1.2416721   -3.9742035 
H     4.3924922    0.1076452   -3.1516495 
C     3.1681645   -2.2643201   -2.8770064 
H     3.4425939   -1.6178017   -4.8684519 
H     1.8366380   -1.2044853   -4.2986955 
C     2.3323320   -3.2204306   -2.4224431 
C     1.0334323   -3.4717921   -2.7325515 
C     0.4137852   -4.5352652   -2.1422868 
C     1.0968216   -5.3319832   -1.2672564 
C     2.4009271   -5.0686080   -0.9745341 
C     2.9881626   -4.0060528   -1.5640303 
H     0.4833485   -2.8251399   -3.4087338 
H    -0.6303267   -4.7466669   -2.3629798 
H     0.5983573   -6.1788714   -0.8008785 
H     2.9600570   -5.6954546   -0.2872945 
N     4.3370845   -3.5919785   -1.4207948 
C     4.3768814   -2.4747934   -2.3163207 
H     5.0980071   -3.9982786   -0.8279760 
H     5.2861240   -1.9298001   -2.5590359 
