48
Energy =
C     0.4986656   -4.0756567    2.5113709 
C     0.0870434   -3.3671960    1.4263510 
C     1.6884019   -3.7858747    3.1089011 
C     2.4585494   -2.7891704    2.6155669 
C     2.0423998   -2.0877552    1.5339156 
C     0.8564259   -2.3558283    0.9394268 
H    -0.8575888   -3.6192528    0.9520256 
H     3.4054847   -2.5614614    3.0920393 
H     2.6304305   -1.1998270    1.0344582 
H    -0.1225260   -4.8773198    2.8961022 
C     0.4519929   -1.5876848   -0.3111886 
C     0.8184073   -0.0703017   -0.2903489 
H    -0.6466988   -1.6836269   -0.4544659 
H     0.9315348   -2.0701752   -1.1881853 
C     2.3358000    0.2035082   -0.3657796 
O     2.1409144   -4.4968541    4.2246640 
H     1.5047585   -5.2225288    4.5359543 
O     3.1929754   -0.3713567    0.5769020 
N     0.0859767    0.6152027   -1.3702294 
H     0.5011250    0.3628207    0.6887121 
H     0.2409087    0.1174707   -2.2790173 
H    -0.9430350    0.5860419   -1.1731218 
N     2.8561198    1.2311517   -1.2221093 
C     4.3095439    1.2562037   -1.4789073 
H     2.2030365    1.9322145   -1.6407522 
C     4.8106895    2.6925560   -1.5370463 
O     5.1055781    3.2841066   -2.7603221 
O     4.9432491    3.4546239   -0.3770440 
H     4.6213361    2.9540748    0.4403566 
C     4.6227730    0.4740814   -2.7743711 
H     4.8779514    0.7975890   -0.6370596 
C     4.2910138   -0.9969196   -2.6388514 
H     5.7067825    0.5676572   -3.0111008 
H     4.0818588    0.9317309   -3.6301001 
C     3.2319224   -1.6446867   -3.1525535 
C     2.2131024   -1.1828513   -3.9235298 
C     1.2416409   -2.0595744   -4.3086129 
C     1.3001235   -3.3694950   -3.9213953 
C     2.3303394   -3.8109943   -3.1456666 
C     3.2803301   -2.9254020   -2.7791242 
H     2.1574654   -0.1428419   -4.2284424 
H     0.4168429   -1.7148391   -4.9280663 
H     0.5225610   -4.0624031   -4.2336028 
H     2.3906404   -4.8459879   -2.8262404 
N     4.4167731   -3.1769002   -1.9662698 
C     5.0151653   -1.8752035   -1.9223613 
H     4.7354333   -4.0694316   -1.5237744 
H     5.9154677   -1.6318733   -1.3627051 
