48
Energy =
C     1.0900680   -3.9379711    1.7871950 
C     1.0499897   -2.8236955    1.0139146 
C     2.2380085   -4.6600198    1.8866804 
C     3.3397401   -4.2601646    1.2117769 
C     3.3057247   -3.1463196    0.4372560 
C     2.1577717   -2.4227353    0.3308920 
H     0.1263905   -2.2544651    0.9494336 
H     4.2495506   -4.8436534    1.3015069 
H     4.2024008   -2.8397571   -0.0953970 
H     0.2021474   -4.2489119    2.3267527 
C     2.1258380   -1.1736782   -0.5209725 
C     2.7791870    0.0384754    0.1935741 
H     1.0825858   -0.9208826   -0.8134649 
H     2.6602477   -1.3927554   -1.4715774 
C     2.9736390    1.2260019   -0.7419594 
O     2.3129433   -5.8134354    2.6742310 
H     1.4481009   -6.0447645    3.1508192 
O     3.2683268    2.4736629   -0.2056843 
N     1.9793732    0.4263181    1.3670409 
H     3.8063638   -0.2327693    0.5299346 
H     0.9823082    0.5921718    1.0940416 
H     1.9997465   -0.3346623    2.0852743 
N     3.2579062    1.0075385   -2.1327867 
C     4.7231164    0.9298718   -2.3859002 
H     2.8239005    1.8203405   -2.6249109 
C     5.3720277    2.2579312   -2.8019879 
O     6.5779317    2.6209056   -2.2157924 
O     4.8532395    3.0812097   -3.8036006 
H     4.0568548    2.6724551   -4.2633207 
C     5.0092494   -0.2140514   -3.3819641 
H     5.2684041    0.6443856   -1.4529017 
C     4.3315741   -0.0323493   -4.7221046 
H     4.6625294   -1.1717683   -2.9358522 
H     6.1070799   -0.3304284   -3.5201595 
C     4.8574784    0.5150566   -5.8298516 
C     6.0906353    1.0433379   -6.0410221 
C     6.3720863    1.5618430   -7.2707710 
C     5.4279816    1.5458651   -8.2600604 
C     4.1948505    1.0147209   -8.0236161 
C     3.9408377    0.5076988   -6.7989626 
H     6.8364464    1.0764091   -5.2520118 
H     7.3495815    1.9986124   -7.4613358 
H     5.6588571    1.9654181   -9.2359429 
H     3.4314829    1.0016547   -8.7938556 
N     2.7243764   -0.0658819   -6.3427582 
C     3.0626605   -0.3861690   -4.9872986 
H     1.8256771   -0.2103794   -6.8568597 
H     2.3829164   -0.8444295   -4.2729790 
