48
 energy: -9.064872113581 gnorm: 0.000259988850 xtb: 6.6.0 (2ccbbd7)
C            5.92063882600443        1.92747523488763        1.62128790951291
C            4.98140615523395        0.92435038990346        1.58859917690411
C            7.19505301239735        1.72361416607201        1.09089952529502
C            7.48624368921291        0.47981867201201        0.53087377757885
C            6.53888313627599       -0.51491261352639        0.49390212012371
C            5.27389718652130       -0.30969021756874        1.02537435288692
H            3.99044474290889        1.09964019661375        1.97236549988497
H            8.46590070923103        0.32390290254809        0.11609969431099
H            6.77250359858686       -1.46430329694887        0.04341631006050
H            5.67363592909082        2.88779618786364        2.03724621968421
C            4.22025596343954       -1.36823699522319        0.93115070791785
C            3.26113846011702       -1.15918662816579       -0.24791080261726
H            3.64742068420710       -1.38379080282608        1.86465444468308
H            4.69810135939814       -2.34972974204759        0.85117825796580
C            2.44075920862575        0.10768565404724       -0.05214028337647
O            8.15683941554584        2.71673329076546        1.09483954651109
H            7.78583522546514        3.53567161384539        1.48754147608763
O            1.58403764853049        0.05069552969275        0.81144344681051
N            3.93719831994989       -1.26266325433892       -1.53432635220762
H            2.51217784621112       -1.97045570702678       -0.23434529896739
H            4.74885872325979       -0.66317329671238       -1.54673307512640
H            4.28510671098695       -2.20288200307302       -1.67534502474080
N            2.61300654097365        1.29200910627146       -0.75384427534352
C            3.84338336968520        1.71446579111947       -1.43889673359113
H            2.09582341466761        2.09650294713537       -0.39577221739537
C            3.98702613420651        3.19940889203767       -1.29947228596895
O            5.22727595396626        3.72826860816517       -1.09618825034110
O            2.84035493070933        3.95344974746291       -1.40369580161427
H            2.11064120111096        3.41756513255400       -1.79342203909443
C            3.87256332311233        1.29270838925435       -2.92064501217865
H            4.68365810793962        1.25122812199947       -0.90850879384002
C            5.22677963266032        0.87839893066345       -3.40628959036781
H            3.48820540759982        2.10563330004202       -3.54433411813948
H            3.17663537934659        0.45792181588826       -3.05809491029390
C            6.49813351788349        1.40631562603237       -3.02335751741010
C            6.89341949514805        2.44511108084232       -2.17054093353196
C            8.22051632774132        2.70109159114720       -1.99932310956513
C            9.19658907566374        1.93979165648619       -2.66151854045635
C            8.84286728064527        0.92134032227402       -3.50334027717843
C            7.48154509388550        0.64840876794692       -3.69120353729246
H            6.03746140747860        3.11268348299700       -1.59367280132200
H            8.52278517211972        3.48805396669310       -1.32832570355272
H           10.23826523575449        2.16280897796289       -2.50059745693408
H            9.58108773957891        0.33219726262277       -4.01704399803726
N            6.82703559600816       -0.29665663811448       -4.45945790539876
C            5.47355820707421       -0.14594567392976       -4.28733134728970
H            7.29010664879231       -0.97751606453617       -5.06406570566505
H            4.72213119718026       -0.76010286292529       -4.75661646885428
