48
Energy =
C     3.4030680   -4.0503400   -2.4762976 
C     2.9839735   -2.6587202   -2.7149820 
C     3.5077679   -4.8692806   -3.5477474 
C     3.0404327   -4.5166505   -4.7538452 
C     2.5479158   -3.2870818   -4.9820106 
C     2.5256422   -2.3425767   -4.0082302 
H     2.6916544   -1.5528531   -1.9146516 
H     3.1041317   -5.2378921   -5.5630785 
H     2.2109776   -3.0557793   -5.9901374 
H     3.1131611   -3.3036638   -1.9305854 
C     2.1748485   -0.9124251   -4.4275558 
C     0.9286944   -0.2055335   -3.8043057 
H     2.0065359   -0.8815325   -5.5275368 
H     3.0917389   -0.2986137   -4.3479415 
C     0.5689554   -0.3061332   -2.2993047 
O     4.0971076   -6.1289926   -3.4153693 
H     4.4164914   -6.3358725   -2.4731448 
O    -0.5556225   -1.0734711   -2.0136901 
N     0.8874175    1.1833820   -4.2826457 
H     0.0484290   -0.7291095   -4.2636302 
H     1.7757601    1.7084738   -4.0956419 
H     0.7137658    1.2134410   -5.3147984 
N     1.3724498    0.0526658   -1.1417581 
C     2.5085982    1.0073762   -1.2232105 
H     0.6850159    0.4098061   -0.4359099 
C     2.0791457    2.4099015   -1.6699810 
O     0.7671319    2.8121979   -1.4518588 
O     2.9508080    3.3348853   -2.2523599 
H     3.9044421    3.0081395   -2.2835294 
C     3.7840832    0.4371784   -1.9340832 
H     2.8369138    1.1702187   -0.1728863 
C     3.9956982   -1.1238624   -1.9257946 
H     4.6818329    0.9147956   -1.4608986 
H     3.7903455    0.8314229   -2.9650555 
C     4.5660626   -1.5156238   -0.5846442 
C     3.9225627   -1.5473027    0.6101345 
C     4.6065139   -1.9456215    1.7163497 
C     5.9155437   -2.3112578    1.6173924 
C     6.5422820   -2.2839731    0.4100130 
C     5.8500839   -1.8875269   -0.6824226 
H     2.8786460   -1.2628520    0.6883476 
H     4.1075991   -1.9717042    2.6816914 
H     6.4606137   -2.6260648    2.5037083 
H     7.5842626   -2.5736053    0.3184548 
N     6.4020061   -1.8380173   -1.9978564 
C     5.2770540   -1.3685486   -2.7555555 
H     6.5926618   -2.8225575   -2.2979447 
H     5.3653495   -1.1320032   -3.8126230 
