48
Energy =
C     3.0515018   -1.3452785   -2.4819197 
C     3.6856374   -2.0151829   -1.4866989 
C     1.8312184   -1.7606387   -2.9155678 
C     1.2471939   -2.8351682   -2.3394861 
C     1.8768813   -3.5089337   -1.3452608 
C     3.1062551   -3.1093039   -0.9179398 
H     4.6581812   -1.6669749   -1.1446516 
H     0.2707971   -3.1529365   -2.6873676 
H     1.3907973   -4.3687165   -0.8923178 
H     3.5222662   -0.4748641   -2.9267886 
C     3.8087820   -3.8538763    0.2004437 
C     3.3918260   -3.3563463    1.5998662 
H     4.9123296   -3.7513658    0.0891648 
H     3.5962476   -4.9423072    0.1177605 
C     3.7210422   -1.8835435    1.7850160 
O     1.1568811   -1.1018501   -3.9485759 
H     1.6976362   -0.3597127   -4.3787592 
O     5.0523061   -1.4831836    1.8334625 
N     1.9640162   -3.6458316    1.8195211 
H     4.0017087   -3.8963820    2.3620446 
H     1.8318119   -4.6827969    1.8767756 
H     1.6763432   -3.2736432    2.7586135 
N     2.6974614   -0.8879450    1.6868638 
C     2.6306449    0.0966537    2.7788969 
H     2.1070349   -0.8674434    0.8278418 
C     2.0518176   -0.5421842    4.0381491 
O     0.6775907   -0.5394197    4.2511294 
O     2.8672995   -1.2039060    4.9569397 
H     3.8411559   -1.1731513    4.6885390 
C     1.8042735    1.3215131    2.3335553 
H     3.6563633    0.4543414    3.0281964 
C     2.4278719    2.0171129    1.1420482 
H     1.7442640    2.0483249    3.1745087 
H     0.7583715    1.0138105    2.1191396 
C     2.0108642    1.9810586   -0.1352872 
C     0.9447566    1.3482690   -0.6918639 
C     0.7385450    1.4827477   -2.0331386 
C     1.5902925    2.2367395   -2.7914774 
C     2.6565308    2.8582416   -2.2137501 
C     2.8396699    2.7111731   -0.8849496 
H     0.2641718    0.7465277   -0.0983187 
H    -0.1051110    0.9813642   -2.5041575 
H     1.4156758    2.3406481   -3.8595510 
H     3.3426002    3.4600017   -2.8004118 
N     3.8784151    3.2733943   -0.0968662 
C     3.5390902    2.7719524    1.2020975 
H     4.6741179    3.8889785   -0.3832215 
H     4.1127051    2.9677306    2.1054768 
