48
Energy =
C    -0.3255112    5.7924952    0.5887781 
C    -0.5309629    4.4487923    0.6458105 
C     0.8536782    6.2882967    0.1171570 
C     1.8214328    5.4358912   -0.2903182 
C     1.6097745    4.1013429   -0.2234416 
C     0.4358084    3.5900741    0.2211363 
H    -1.4713318    4.0695963    1.0363900 
H     2.7566586    5.8293767   -0.6725286 
H     2.3363299    3.2653399   -0.5788344 
H    -1.1045567    6.4684097    0.9242859 
C     0.2544786    2.0723019    0.3421161 
C     0.8866208    1.2047131   -0.8018080 
H    -0.8333454    1.8460301    0.3823235 
H     0.6819980    1.7512240    1.3165978 
C     2.4224966    1.2480160   -0.8186774 
O     1.0924437    7.6644284    0.0410246 
H     0.3203561    8.2337816    0.3694804 
O     3.0421181    2.4970850   -0.9138518 
N     0.3849228   -0.1766527   -0.6953279 
H     0.5836177    1.6306522   -1.7889389 
H     0.5226255   -0.5303289    0.2813081 
H    -0.6446384   -0.1889130   -0.8873782 
N     3.2258989    0.0756184   -0.9964805 
C     4.5623515    0.2906957   -1.5844006 
H     2.8862690   -0.8565201   -0.6724224 
C     5.1095341    1.6982077   -1.3221568 
O     6.4316071    1.9875956   -1.6489346 
O     4.3875397    2.5960455   -0.8826166 
H     3.7675502    2.4229610   -0.0764658 
C     4.5134290   -0.0411646   -3.0949457 
H     5.2821282   -0.4017171   -1.0980424 
C     3.4095708    0.7066667   -3.8200509 
H     4.3452586   -1.1339674   -3.2120121 
H     5.4964965    0.1759259   -3.5680172 
C     3.4584121    1.9530871   -4.3204556 
C     4.4895686    2.8350702   -4.3732360 
C     4.2666453    4.0633900   -4.9227470 
C     3.0311635    4.3886331   -5.4091966 
C     2.0109494    3.4869995   -5.3495717 
C     2.2562019    2.2783650   -4.8014802 
H     5.4704994    2.5850263   -3.9825350 
H     5.0746840    4.7898622   -4.9654916 
H     2.8603227    5.3719412   -5.8400628 
H     1.0237054    3.7309608   -5.7265736 
N     1.3330147    1.2119099   -4.6342332 
C     2.1587594    0.2375132   -3.9829768 
H     0.3252811    1.1559610   -4.9071888 
H     1.8023483   -0.7202868   -3.6100641 
