48
 energy: -9.067383621658 gnorm: 0.000612802415 xtb: 6.6.0 (2ccbbd7)
C           -3.24397111173429        1.36158811713249        2.36315669238407
C           -1.90773199278933        1.54717794272856        2.09753776596957
C           -4.21713432190397        1.98595198698861        1.58206216495893
C           -3.79727536278612        2.79928211927865        0.52978367626332
C           -2.45955656299509        2.98036685657776        0.27077057298665
C           -1.49504246382582        2.36102534493417        1.05168798093209
H           -1.16557242339852        1.05654322126812        2.70382166348464
H           -4.54714786417498        3.27851620090342       -0.07388467162408
H           -2.14803406981136        3.60651165941226       -0.54769259635484
H           -3.55292883510524        0.73122796524046        3.17775331618579
C           -0.04106502313849        2.52847493358447        0.73778044773145
C            0.39771556755499        1.75260935506376       -0.50631272596587
H            0.56376060525857        2.19446496661628        1.58620231661355
H            0.18834802997059        3.59178007018659        0.61251341287448
C            1.87004940165569        1.96269336066898       -0.75394940740898
O           -5.56813234233890        1.81815160250773        1.82115421264482
H           -5.70136436028027        1.22130787382027        2.58919718846926
O            2.66188723588232        1.50397758036346        0.04238558386775
N            0.14024125206573        0.32629661864269       -0.38634776598602
H           -0.16389396952045        2.11836643907969       -1.37910645593640
H            0.80447597418334       -0.06029126210351        0.27116318856182
H           -0.79021341687132        0.16298085394780       -0.02273432552454
N            2.26083396384784        2.66736576446342       -1.86953156095732
C            3.66813912203327        2.72681436294005       -2.23225776177817
H            1.61154178919773        2.84762528124699       -2.63676124891927
C            3.89866529410073        3.90353395495943       -3.14296602845003
O            4.68704586088577        3.80067109581738       -4.26034859303568
O            3.27406972609981        5.07722257268529       -2.78467113111528
H            2.74524624763877        4.93325690818301       -1.96511326031002
C            4.12505505816097        1.37167979859549       -2.80371894014695
H            4.21320959110979        2.90626320669166       -1.29349930512467
C            5.55203971184458        1.03619055203393       -2.51448963551916
H            3.94502539718493        1.35358423844214       -3.88295915440879
H            3.49013055343056        0.58697744507803       -2.37753029260258
C            6.69076055369234        1.75638635204741       -2.96863521731136
C            6.81022980038246        2.91052170143730       -3.74350739602148
C            8.05197828343089        3.39916281095075       -4.01754156159175
C            9.20161489859423        2.75160716650109       -3.53107306440759
C            9.10939002768559        1.61970089716069       -2.76474919936846
C            7.83713904952025        1.10940141820610       -2.47171718746010
H            5.72695734923501        3.40458988321156       -4.05534688113419
H            8.14877164744864        4.29502160055336       -4.60758598246252
H           10.17197646573364        3.15867558657040       -3.76211734445106
H            9.98371875506690        1.12247365792792       -2.38486220432532
N            7.40033728213975        0.02490669759561       -1.72984814894456
C            6.02536615408099       -0.00683816857935       -1.75594953082555
H            8.01218004794093       -0.62364478173643       -1.23108214007532
H            5.41502058903266       -0.73381918428767       -1.24453413561320
