48
 energy: -9.281935091674 gnorm: 0.000757824101 xtb: 6.6.0 (2ccbbd7)
C            0.52844695088175       -0.25743807223092        2.66817111988963
C            1.44529937056768        0.25514407204616        1.78209670482219
C            0.49327157134686        0.18764189078772        3.98970628139084
C            1.40703814817772        1.16587436263799        4.38016141649278
C            2.31716923451930        1.67616712420946        3.48545066239602
C            2.35409842890765        1.22723396436211        2.17269896286466
H            1.44032092868074       -0.07046909729126        0.75620115703035
H            1.37729391625372        1.51232738288562        5.39776798109257
H            3.01262970637302        2.43440436094125        3.80190739624367
H           -0.17857788902249       -1.00100585076531        2.34659952357643
C            3.33656885879449        1.79892150984217        1.19602200339556
C            2.69511679392490        2.68506453983862        0.11458350428948
H            3.88648996566064        0.97947646795838        0.72276139442615
H            4.08387463305870        2.38052415755901        1.74559278700228
C            1.93674627971858        1.85801961466626       -0.89685852054565
O           -0.41375884033865       -0.30667273134569        4.90725597716584
H           -1.00061361290876       -0.96635473139117        4.47898726640395
O            0.77206201735466        1.60343774721916       -0.66946866526047
N            1.77783416661718        3.66357365682389        0.67636304913765
H            3.47629867531587        3.25088398441528       -0.41757543727887
H            0.89316597008673        3.19541325611954        0.85450098132583
H            2.12833904452103        4.04121353745165        1.54859435027838
N            2.56306856076457        1.40036415722086       -2.03363682311954
C            3.96361364825045        1.65392958622336       -2.38212533310040
H            2.01738057034819        0.91701531450179       -2.74305162952770
C            4.13554514912759        3.01163253490688       -3.03136091280122
O            5.25602519394274        3.31854669032060       -3.37760435262040
O            3.03239132574503        3.78555674705722       -3.17778204475445
H            2.23602805321755        3.33794643715384       -2.81309038445520
C            4.52240862821120        0.55827889571350       -3.28992836868813
H            4.54572975159409        1.65075952415788       -1.45164176910939
C            4.56890311281156       -0.78540799229392       -2.64234189476317
H            5.52905701665035        0.84550373910552       -3.61137961307545
H            3.91882381218212        0.50560399547404       -4.20056615588813
C            5.49010165033311       -1.83589373474738       -2.92948238991131
C            6.57814331628622       -1.93838800567593       -3.81326061018504
C            7.27629775614655       -3.11327696036310       -3.85946934669836
C            6.92226268139039       -4.20203474481263       -3.04596455152568
C            5.86652053134534       -4.12557153590812       -2.17928368888468
C            5.13768256714467       -2.93122752923142       -2.11583096448065
H            6.84517110985517       -1.10320966926115       -4.43609491362406
H            8.11295385319386       -3.20790543332626       -4.53170768766585
H            7.49305608656249       -5.11373244713333       -3.10852489474417
H            5.58752732943195       -4.95505344292006       -1.55463922295207
N            4.03681329939319       -2.55675726659943       -1.36468030677832
C            3.69953142062868       -1.26956796043498       -1.69779488666686
H            3.55003764655298       -3.16075711601372       -0.69997570912957
H            2.87539338277216       -0.71894069587910       -1.28067418310040
