48
 energy: -9.052318368842 gnorm: 0.000524586318 xtb: 6.6.0 (2ccbbd7)
C           -2.87076514585398        1.57025200516660        2.28137222519008
C           -1.60922323762192        1.56902113531016        1.73430138992154
C           -3.98393221428805        1.87819425192514        1.49843781606990
C           -3.78139663561051        2.17949500858543        0.15193734071197
C           -2.51717436645843        2.17682872331613       -0.38733106394915
C           -1.41188287491410        1.87688561293254        0.39532009927259
H           -0.75835088953320        1.32800441572015        2.34833261553755
H           -4.63955780948263        2.41260981566329       -0.45265527664226
H           -2.37560585091126        2.40713161512540       -1.42916356403102
H           -3.01186067726739        1.33379088894099        3.32081236800863
C           -0.04183531143541        1.84149419514163       -0.20796992069089
C            0.17800308626922        0.60905604273419       -1.09317438553910
H            0.70397942687235        1.85205377228194        0.59109310078990
H            0.12905716359007        2.75850167218065       -0.77923544677802
C            1.48688056356488        0.69196376200149       -1.91814146812866
O           -5.26450914712822        1.89199277385692        2.01835487183451
H           -5.24170288338492        1.66688657674514        2.97372272087357
O            1.51817150972298       -0.34221075379290       -2.94081002166018
N            0.19122496111657       -0.61806756768229       -0.31678054354320
H           -0.65135997713883        0.52790108058103       -1.81096303239389
H            1.09239834570750       -0.70473945589137        0.14501166446352
H           -0.53260800093725       -0.60419106694038        0.39158748722277
N            2.68862066856297        0.65320015905897       -1.04071784429158
C            4.06356674683248        0.87893121531538       -1.53686029131469
H            2.53282536338634        1.31232655479994       -0.27548995552265
C            4.31324534992946        2.36726938533960       -1.69371135464995
O            4.32563061272144        2.85675794670943       -2.80208928713483
O            4.47258503332541        3.06445053920798       -0.53922805392512
H            4.45603773387024        2.47100874003491        0.24412514177707
C            4.44383675616486        0.07767300030602       -2.79099185996669
H            4.72881384728823        0.53707826820951       -0.72746984240193
C            3.60052246503014        0.34393444064743       -3.98102075990827
H            4.37817409382408       -0.99171377297562       -2.56336403941156
H            5.48854874965237        0.28246650333387       -3.04791583248566
C            2.11332391633615        0.58950437701447       -3.88640891463466
C            1.54474265438383        1.78616567101970       -3.04429618859674
C            0.22409828247405        2.28134310381767       -3.56249774065570
C           -0.26160837016285        1.95957252459909       -4.76799745734545
C            0.46804357870004        1.14636791481467       -5.70013513690514
C            1.60944967005543        0.53945172251078       -5.31041020060757
H            2.28467424999562        2.57721046240049       -2.87806047716929
H           -0.35540778868617        2.92107208550204       -2.91985086904930
H           -1.21373041304233        2.35721573526003       -5.07859884793796
H            0.17666169440957        1.11580106101687       -6.73523865021204
N            2.69896035293433        0.09632158807937       -6.05423347054256
C            3.86313385580910        0.01674172278503       -5.26209882402866
H            2.73317749692909        0.16855595120647       -7.07104133582066
H            4.81817458950836       -0.32228222767124       -5.62664074438987
