48
Energy =
C     0.2982130   -3.3508714   -2.2394371 
C    -0.2121009   -2.4042977   -1.4131993 
C     0.3336701   -3.1388266   -3.5815443 
C    -0.1565872   -1.9854355   -4.0893002 
C    -0.6813148   -1.0411197   -3.2686428 
C    -0.7076373   -1.2422717   -1.9222671 
H    -0.2245552   -2.5849651   -0.3401192 
H    -0.1281185   -1.8295464   -5.1618265 
H    -1.0782582   -0.1251394   -3.6975613 
H     0.6814759   -4.2757246   -1.8219857 
C    -1.2813643   -0.1889079   -0.9953180 
C    -0.2522700    0.8847872   -0.5597745 
H    -1.6858045   -0.6833800   -0.0824763 
H    -2.1561790    0.2996813   -1.4769578 
C     0.9979220    0.2788437    0.0610554 
O     0.8739725   -4.0853479   -4.4573912 
H     1.1661384   -4.9463622   -4.0082866 
O     0.8705923   -0.6045426    1.1275199 
N     0.0602548    1.7959171   -1.6763343 
H    -0.7066744    1.4831008    0.2637544 
H     0.5607452    1.2774927   -2.4351986 
H    -0.8224773    2.1835750   -2.0851504 
N     2.2907975    0.8207576   -0.2275724 
C     3.3645463   -0.1349621   -0.5474173 
H     2.4314898    1.8559576   -0.1643717 
C     4.7252289    0.4191993   -0.1354045 
O     5.0291169    1.7521099   -0.3889881 
O     5.7138380   -0.3947129    0.4204635 
H     5.4249740   -1.3570258    0.5084558 
C     3.3067337   -0.4374758   -2.0590611 
H     3.2123490   -1.0731589    0.0357121 
C     4.3002935   -1.5037266   -2.4665730 
H     3.4788846    0.4974917   -2.6370930 
H     2.2818331   -0.7770536   -2.3264805 
C     5.5591826   -1.3162609   -2.8968642 
C     6.2506999   -0.1650042   -3.0996295 
C     7.5393060   -0.2511928   -3.5375585 
C     8.1118047   -1.4719225   -3.7650749 
C     7.3993774   -2.6146187   -3.5532100 
C     6.1263749   -2.5033485   -3.1191186 
H     5.8055872    0.8074185   -2.9094056 
H     8.1157940    0.6568107   -3.6984129 
H     9.1409822   -1.5313087   -4.1100204 
H     7.8404224   -3.5907853   -3.7232860 
N     5.2242225   -3.5611124   -2.8266175 
C     4.0674465   -2.8263177   -2.4055804 
H     5.3744734   -4.5938701   -2.8967799 
H     3.1369478   -3.2802270   -2.0761632 
