48
 energy: -9.087565707965 gnorm: 0.000647365045 xtb: 6.6.0 (2ccbbd7)
C           -3.24264924654494       -1.14820829989586        0.74013007524822
C           -2.03674916586278       -1.01557445065102        0.09266517733342
C           -4.27393085359881       -0.23520443318181        0.51517065673929
C           -4.04579573186098        0.81138653405644       -0.37834007072740
C           -2.83743235530200        0.93731120305732       -1.02160583125004
C           -1.81655763693151        0.02346357310469       -0.79996336740182
H           -1.24586669785567       -1.72276637808638        0.27634543089829
H           -4.83986748590196        1.51591772393859       -0.55093873745650
H           -2.67432866742544        1.75238851385216       -1.70601632476583
H           -3.40236180673268       -1.95831549107305        1.42922429267049
C           -0.48777007237314        0.17693160908532       -1.47208977136068
C            0.60421100180484        0.69939330836501       -0.53291104668314
H           -0.57551602334703        0.86458743735970       -2.31885252970054
H           -0.18029577365548       -0.78197761596733       -1.90235950684365
C            1.90425920172534        0.79760281229593       -1.24858775205726
O           -5.49839177462302       -0.34138485358533        1.14827784385623
H           -5.50336693255654       -1.12632923253415        1.73864510201885
O            1.98000941767431        1.44727186788004       -2.44934900626429
N            0.26655176552022        2.00156992126102        0.02988515855894
H            0.72374120800976       -0.00086743498380        0.30822831350511
H            0.38772438412764        2.70586710320639       -0.68643172384133
H           -0.69890971910485        2.02198597178052        0.33400322015878
N            3.11380645976547        0.28027737922373       -0.72422827295540
C            4.33602090164584        0.61757869564311       -1.46216746963958
H            3.10169288020931       -0.70992309281183       -0.48354460302145
C            4.26270823489517        2.01009613097771       -2.03859723439099
O            3.07347390230720        2.46763886364095       -2.45353334225520
O            5.45050950842551        2.74072226466678       -2.15124481944559
H            6.04950924380751        2.31534841410294       -2.81876252305063
C            4.63578454001409       -0.40208778179113       -2.56565222023663
H            5.16492978323936        0.62120208253313       -0.73789061223934
C            5.88742405590003       -0.04246622879371       -3.29244381582063
H            3.79419513578745       -0.42283171145154       -3.26442268857563
H            4.72008178096028       -1.40946167302152       -2.14715353206437
C            7.20205276872818       -0.07520534428307       -2.72962759858882
C            7.73402203836082       -0.68895253459753       -1.58207842808990
C            9.05017015452652       -0.47766778389232       -1.27555882843208
C            9.86139610853613        0.34165894427725       -2.07801780009215
C            9.36208625568041        0.95951554446431       -3.19211719013838
C            8.01732452501733        0.75365775951110       -3.52473732348532
H            7.10695448094978       -1.30916140632296       -0.96650237235917
H            9.47323252840130       -0.94284014389756       -0.40058943787244
H           10.89318393436513        0.49089249955420       -1.80527249391995
H            9.97142895789240        1.60025205113241       -3.80401407512818
N            7.22011483986434        1.27866025898288       -4.52655492560535
C            5.95458667115052        0.75327417771485       -4.41472384284948
H            7.55608666483716        1.89054115546491       -5.27289115457774
H            5.11331387576340        1.04855645044448       -5.02179056828584
