48
Energy =
C    -3.7005040   -1.4147689   -1.8006055 
C    -2.5086945   -1.2373416   -2.4251880 
C    -3.7921811   -1.2772948   -0.4507383 
C    -2.6893124   -0.9611656    0.2651038 
C    -1.4951197   -0.7821873   -0.3539970 
C    -1.3970037   -0.9227716   -1.7043495 
H    -2.4533447   -1.3454317   -3.5053736 
H    -2.7763311   -0.8521610    1.3404978 
H    -0.6203961   -0.5263454    0.2382166 
H    -4.5801376   -1.6655365   -2.3836150 
C    -0.0682608   -0.7099166   -2.3953659 
C     0.2882650    0.7855466   -2.5431480 
H    -0.0608567   -1.1940120   -3.3978644 
H     0.7154995   -1.2161959   -1.7931476 
C     1.6995238    0.9495836   -3.0891529 
O    -5.0045046   -1.4541285    0.2240312 
H    -5.7837476   -1.6847983   -0.3827123 
O     1.8843348    1.0598019   -4.4654429 
N    -0.6882033    1.4781382   -3.3987376 
H     0.2845502    1.2728981   -1.5402289 
H    -0.7218919    1.0247384   -4.3427197 
H    -1.6434350    1.4311075   -2.9759507 
N     2.8070435    1.1009471   -2.1674051 
C     4.1706366    0.9020304   -2.7287044 
H     2.6665554    0.4196921   -1.3859864 
C     4.5403938    1.9516237   -3.7715100 
O     5.7724776    2.5899496   -3.6942025 
O     3.7187003    2.1924896   -4.8612717 
H     2.8036263    1.6264504   -4.6616472 
C     4.3846017   -0.5321823   -3.2855794 
H     4.8983073    1.0764853   -1.9053990 
C     4.2866744   -1.5966132   -2.2165880 
H     5.3917092   -0.6033807   -3.7548723 
H     3.6548883   -0.7400516   -4.1009085 
C     5.1700715   -1.8386723   -1.2347417 
C     6.3553615   -1.2353232   -0.9594209 
C     7.0762514   -1.6810068    0.1093441 
C     6.6104152   -2.7144518    0.8744840 
C     5.4219917   -3.3109340    0.5734072 
C     4.7261159   -2.8504922   -0.4871510 
H     6.7357927   -0.4238675   -1.5732282 
H     8.0287470   -1.2147423    0.3515375 
H     7.1923173   -3.0655249    1.7232936 
H     5.0416283   -4.1365172    1.1654983 
N     3.4848592   -3.3374289   -0.9768847 
C     3.2766780   -2.4760414   -2.1026412 
H     2.8862944   -4.1134172   -0.6111726 
H     2.4308738   -2.5483938   -2.7816269 
