48
Energy =
C     2.3623406   -1.7206125    2.2147173 
C     1.8883845   -0.6281028    1.5640859 
C     1.5221564   -2.7374650    2.5449596 
C     0.2125318   -2.6541146    2.2198777 
C    -0.2666555   -1.5648447    1.5689271 
C     0.5693453   -0.5423425    1.2368087 
H     2.5728765    0.1745276    1.3036320 
H    -0.4472612   -3.4718256    2.4858721 
H    -1.3216041   -1.5204544    1.3136537 
H     3.4147851   -1.7793554    2.4685377 
C     0.0416337    0.6710752    0.4978158 
C     0.1864210    0.5596333   -1.0419231 
H     0.5745604    1.5802622    0.8556804 
H    -1.0273728    0.8358091    0.7576511 
C     1.6488175    0.4605447   -1.4849014 
O     1.9777080   -3.8761380    3.2183009 
H     2.9720793   -3.8659828    3.4153881 
O     2.1122303   -0.7483120   -1.9940413 
N    -0.6402728   -0.5406584   -1.5683204 
H    -0.1924322    1.5042941   -1.4923030 
H    -0.2297104   -1.4610357   -1.2785889 
H    -1.6080088   -0.4904175   -1.1744443 
N     2.5442234    1.5601499   -1.1664896 
C     3.9586357    1.6311545   -1.6631165 
H     2.0268795    2.4319042   -1.4285233 
C     4.2382549    2.9880137   -2.3239311 
O     3.7938695    3.2158271   -3.6214574 
O     4.8747436    4.0269182   -1.6441957 
H     5.1161735    3.7791468   -0.6965615 
C     4.4247758    0.4695580   -2.5803480 
H     4.6084319    1.5834835   -0.7633525 
C     5.8525247    0.6503346   -3.0579377 
H     3.7394504    0.3777740   -3.4544855 
H     4.3885916   -0.4910496   -2.0243185 
C     6.9704433    0.3586058   -2.3737262 
C     7.1180347   -0.1830876   -1.1370561 
C     8.3816881   -0.3732294   -0.6598510 
C     9.4658560   -0.0207086   -1.4153623 
C     9.2928301    0.5242488   -2.6530917 
C     8.0330806    0.6996143   -3.1040568 
H     6.2592678   -0.4625413   -0.5340653 
H     8.5280112   -0.8068554    0.3266008 
H    10.4699056   -0.1737776   -1.0274498 
H    10.1414592    0.8134435   -3.2637144 
N     7.6359156    1.2574790   -4.3481310 
C     6.2075809    1.1957402   -4.2355874 
H     8.2264653    1.6115391   -5.1352525 
H     5.5125930    1.5795186   -4.9825903 
