48
 energy: -9.198889515484 gnorm: 0.000534740772 xtb: 6.6.0 (2ccbbd7)
C           -0.17267302032746        4.64040079795753       -1.61983444884428
C            0.91085915566485        3.85226634881214       -1.92415319821856
C           -1.05864187122135        5.04292524808462       -2.61979396601801
C           -0.81604214119730        4.61894504857728       -3.92622770660198
C            0.26871833862534        3.82814435034493       -4.22101407294519
C            1.15220705014048        3.43709106001883       -3.22519567982909
H            1.57476237942660        3.52155146098028       -1.14360282472500
H           -1.50181866329738        4.92502668908637       -4.69598196651922
H            0.44123780640825        3.50479160528333       -5.23304940161630
H           -0.35151633743170        4.94808261837502       -0.60509994956453
C            2.31931243081272        2.56275933294294       -3.53509011771780
C            2.14486507709886        1.10904080750602       -3.10918960295336
H            3.28211484874762        2.99909154767332       -2.88657477026541
H            2.58805396752565        2.64071071173775       -4.59054430031866
C            2.13400003999716        1.00988958559701       -1.60199078682922
O           -2.15584346662481        5.83900891879459       -2.35158360831228
H           -2.19288776310741        6.04782046947598       -1.39329176017361
O            1.04906714701566        0.97447323069674       -1.05552568051496
N            0.92250125171013        0.51629437546805       -3.63642052593976
H            2.97451445773998        0.50737978486826       -3.49597421929686
H            0.15600823132704        0.78392859994465       -3.02452507514066
H            0.72339011231373        0.85806423442152       -4.56905992008402
N            3.29253761764627        1.01446995253653       -0.84992552027700
C            4.70004845268477        1.13770072779022       -1.30128058319447
H            3.18296701562981        1.04089063034849        0.16208985612483
C            5.09595912693881        2.55648099896918       -1.63268635749787
O            6.22565649602092        2.91032447687783       -1.37112932294980
O            4.15864140967352        3.43342195508029       -2.26108099958875
H            4.59428016770478        4.31808367231915       -2.54593805710247
C            5.13890313417543        0.15628147708583       -2.39761422070649
H            5.30062808946656        0.89036147636766       -0.41125662289068
C            4.53427532981173       -1.20529206678786       -2.27760893602071
H            6.23105707894397        0.06713633939302       -2.39548572356799
H            4.90500191946763        0.58075596566859       -3.37761194413181
C            4.46024007428075       -2.02483483596690       -1.10984733388347
C            4.91478263232788       -1.87003795962445        0.21239367939797
C            4.65551872801482       -2.85960166211634        1.11987052205715
C            3.95240242191424       -4.01795856017611        0.75306113815424
C            3.50900651144034       -4.19812001865313       -0.52787280571957
C            3.76613909068411       -3.19663338517704       -1.47228982476059
H            5.46611642693671       -0.99266980259531        0.49588958678883
H            4.99586653000042       -2.75074611077841        2.13632619174213
H            3.76055816015990       -4.77624168696934        1.49413110135955
H            2.96960267960011       -5.08118283726558       -0.82006951960650
N            3.45567429607171       -3.10053851132983       -2.81600184351464
C            3.92074494907905       -1.90112248108425       -3.29130507009435
H            2.92893990199169       -3.79867488157135       -3.34429856575982
H            3.80853518995858       -1.56147865436777       -4.30827398253983
