48
Energy =
C     0.2406558    4.7382283   -1.5851864 
C    -0.1106977    3.5628945   -1.0038473 
C     1.3639056    5.3908640   -1.1841548 
C     2.1260443    4.8635622   -0.1992021 
C     1.7790509    3.6884533    0.3849546 
C     0.6625082    3.0262525   -0.0207007 
H    -1.0132989    3.0546076   -1.3310958 
H     3.0173966    5.3944699    0.1172087 
H     2.4035176    3.2855941    1.1793615 
H    -0.3778596    5.1553043   -2.3707778 
C     0.2780474    1.7137579    0.6262705 
C     0.3616729    0.5193921   -0.3533491 
H    -0.7593676    1.8037520    1.0150556 
H     0.9242442    1.5095915    1.5093491 
C     1.7490083    0.3371054   -0.9568591 
O     1.7549242    6.6027000   -1.7656039 
H     1.1303790    6.9321637   -2.4922298 
O     1.8558656    0.3864307   -2.3384816 
N    -0.0932223   -0.7080449    0.3217905 
H    -0.3106676    0.7137940   -1.2211401 
H     0.3815429   -0.8112516    1.2494146 
H    -1.1190504   -0.6311274    0.5172978 
N     2.8919944    0.1378636   -0.0903452 
C     4.2977395   -0.0509541   -0.5684903 
H     2.6397872   -0.6734852    0.5189896 
C     5.2193315    0.8710641    0.2177242 
O     6.3174432    0.3343264    0.8778261 
O     5.0485910    2.2535507    0.2100659 
H     4.2109452    2.5026119   -0.2957426 
C     4.5945496    0.1059251   -2.0938677 
H     4.6248957   -1.0721276   -0.2640007 
C     4.4748252   -1.2037212   -2.8567535 
H     5.6499235    0.4340206   -2.2342486 
H     4.0246244    0.9369164   -2.5550271 
C     5.3048176   -2.2575993   -2.7520202 
C     6.4051348   -2.4259585   -1.9712856 
C     7.0913819   -3.6008516   -2.0617009 
C     6.6795668   -4.5767134   -2.9260882 
C     5.5803234   -4.3820747   -3.7080726 
C     4.9155794   -3.2129307   -3.5976034 
H     6.7457970   -1.6504020   -1.2898407 
H     7.9730351   -3.7602421   -1.4448344 
H     7.2337796   -5.5095783   -2.9938035 
H     5.2453581   -5.1426303   -4.4052927 
N     3.7726827   -2.8051314   -4.3326315 
C     3.5575210   -1.4898019   -3.8011510 
H     3.2395572   -3.3209879   -5.0700107 
H     2.7810661   -0.8145779   -4.1526999 
