48
Energy =
C    -0.1472310   -4.0638770    2.0467630 
C    -0.3785733   -3.2980825    0.9473579 
C     0.9653350   -3.8563719    2.8054731 
C     1.8388881   -2.8836634    2.4580942 
C     1.6019416   -2.1250501    1.3611068 
C     0.4943787   -2.3110917    0.6069766 
H    -1.2624323   -3.4853067    0.3435668 
H     2.7240109   -2.7207914    3.0628120 
H     2.2901431   -1.2519709    0.9800119 
H    -0.8500321   -4.8457107    2.3138633 
C     0.2981124   -1.4837957   -0.6551502 
C     0.7246523    0.0135617   -0.5319984 
H    -0.7741833   -1.5215940   -0.9476346 
H     0.8688637   -1.9625908   -1.4767881 
C     2.2474854    0.2234530   -0.3799947 
O     1.2335463   -4.6284491    3.9400048 
H     0.5280714   -5.3296510    4.1369444 
O     2.9445891   -0.4386273    0.6343259 
N     0.1871193    0.7575556   -1.6858018 
H     0.2870300    0.4362001    0.4042391 
H     0.4635604    0.2814986   -2.5774838 
H    -0.8602949    0.7631616   -1.6471047 
N     2.9118665    1.2932043   -1.0698450 
C     4.3879657    1.2586955   -1.1419809 
H     2.3364284    2.0382426   -1.5227114 
C     4.9687341    2.6642579   -1.1813823 
O     5.8940028    3.0422352   -0.2169979 
O     4.6311390    3.5800994   -2.1800344 
H     3.9893871    3.1902278   -2.8525857 
C     4.8475145    0.4307685   -2.3649596 
H     4.8129784    0.8141354   -0.2100209 
C     4.4883902   -1.0342829   -2.2287036 
H     5.9545676    0.5039614   -2.4660382 
H     4.4229219    0.8575046   -3.2965861 
C     3.5256979   -1.7029799   -2.8862229 
C     2.6483276   -1.2721038   -3.8302801 
C     1.7535577   -2.1659629   -4.3412841 
C     1.7458247   -3.4617748   -3.9052649 
C     2.6323607   -3.8717811   -2.9544927 
C     3.5096560   -2.9701434   -2.4662289 
H     2.6450855   -0.2437687   -4.1760485 
H     1.0431279   -1.8464138   -5.1001991 
H     1.0301555   -4.1686333   -4.3180522 
H     2.6379745   -4.8951176   -2.5943676 
N     4.4988158   -3.1907948   -1.4721280 
C     5.0862000   -1.8866581   -1.3766750 
H     4.7403675   -4.0673007   -0.9549291 
H     5.8850260   -1.6219299   -0.6874578 
