48
Energy =
C    -0.0013936   -0.5027323   -5.5951889 
C    -0.0372913    0.6246965   -4.8416076 
C     0.6985087   -0.5235524   -6.7604869 
C     1.3560699    0.5867057   -7.1650834 
C     1.3246593    1.7171038   -6.4147886 
C     0.6287534    1.7424029   -5.2451647 
H    -0.5961264    0.6224297   -3.9081520 
H     1.9087075    0.5573195   -8.0977242 
H     1.8619865    2.5975998   -6.7564512 
H    -0.5319854   -1.3876006   -5.2605170 
C     0.6115250    2.9928063   -4.3906093 
C     1.7329829    3.0253454   -3.3163391 
H    -0.3779555    3.0766833   -3.8840277 
H     0.6890905    3.8957980   -5.0354540 
C     1.6069572    1.8895718   -2.3182230 
O     0.7607276   -1.6706723   -7.5579067 
H     0.2320969   -2.4543412   -7.1903886 
O     0.5227608    1.8622728   -1.4499614 
N     3.0779762    3.0780397   -3.9339150 
H     1.5951297    3.9454990   -2.7005690 
H     3.2597978    2.1879666   -4.4561849 
H     3.0579625    3.7792104   -4.7140362 
N     2.4528388    0.7349414   -2.4098044 
C     3.8510815    1.0023169   -1.9814134 
H     2.3971291    0.3851388   -3.3926631 
C     4.3379487    2.4784710   -2.0401514 
O     4.0508517    3.3812081   -3.1022107 
O     5.1897883    2.9623199   -1.0432884 
H     5.4202590    2.2687507   -0.3479896 
C     4.8127093    0.0649569   -2.7504211 
H     3.8922423    0.7148100   -0.9078396 
C     6.1909615    0.0343683   -2.1281946 
H     4.8869246    0.3915067   -3.8118195 
H     4.3971151   -0.9669247   -2.7681899 
C     6.5843375   -0.7153590   -1.0870697 
C     5.8918050   -1.6332935   -0.3649339 
C     6.5259778   -2.2548856    0.6703530 
C     7.8257373   -1.9500436    0.9675271 
C     8.4990230   -1.0204452    0.2316056 
C     7.8510834   -0.4222685   -0.7898590 
H     4.8573666   -1.8720283   -0.5947969 
H     5.9942288   -2.9946022    1.2642038 
H     8.3232338   -2.4478546    1.7961435 
H     9.5277152   -0.7615421    0.4584154 
N     8.3568746    0.5816220   -1.6580362 
C     7.2147000    0.8279379   -2.4898983 
H     9.3064492    1.0192616   -1.6847618 
H     7.1694347    1.5885698   -3.2685825 
