48
Energy =
C     2.3976655    0.6664202   -4.3058581 
C     1.1573572    0.1917530   -3.8872462 
C     2.5075465    2.0212539   -4.5170661 
C     1.5151697    2.8616310   -4.1632401 
C     0.4126644    2.3970946   -3.5416193 
C     0.2398617    1.0641142   -3.3648948 
H     0.9932219   -0.8656930   -3.7089891 
H     1.6589429    3.9261102   -4.3102171 
H    -0.3087131    3.1090929   -3.1495822 
H     5.2199519   -0.7406222   -4.4777283 
C    -0.8460066    0.5834847   -2.4128050 
C    -0.3225278    0.0535265   -1.0294929 
H    -1.4206814   -0.2240347   -2.9171760 
H    -1.5798721    1.4001880   -2.2290089 
C     0.8370705    0.8464668   -0.3801221 
O     3.6686208    2.5811548   -5.0555117 
H     4.1956106    1.9425473   -5.6343127 
O     0.6943811    1.4304583    0.8736144 
N    -1.4596590   -0.0969230   -0.1081873 
H     0.1030591   -0.9621957   -1.1997645 
H    -1.8184000    0.8503940    0.1635468 
H    -2.2421715   -0.6140573   -0.5727222 
N     2.1525435    0.6183934   -0.8952623 
C     3.4317927    0.8469981   -0.2195544 
H     2.2046608    0.3334251   -1.8605166 
C     3.6991643    2.3193316    0.0537737 
O     4.2989817    2.6758523    1.2548673 
O     3.4797819    3.3074900   -0.9057562 
H     3.0684482    2.9271495   -1.7445503 
C     4.5408450    0.2343641   -1.1451809 
H     3.4204899    0.3502234    0.7779016 
C     4.2368193   -1.2280046   -1.4587517 
H     5.5303367    0.3098710   -0.6403446 
H     4.6072631    0.8201686   -2.0904675 
C     3.7096948   -1.7939201   -2.5873588 
C     3.4866803   -1.3124528   -3.8703633 
C     3.0102728   -2.1947172   -4.8056094 
C     2.7005404   -3.4764840   -4.4739879 
C     2.9106732   -3.9252053   -3.2123289 
C     3.4212710   -3.0753189   -2.3005339 
H     4.0440658    0.1249372   -4.5183088 
H     2.8801137   -1.8613995   -5.8318660 
H     2.3069149   -4.1504845   -5.2314469 
H     2.6918394   -4.9532571   -2.9427366 
N     3.7640819   -3.4075022   -0.9655686 
C     4.2816183   -2.1648521   -0.4949778 
H     3.6670003   -4.3195835   -0.4611116 
H     4.5896061   -1.9854303    0.5338655 
