48
Energy =
C    -1.7587318    5.5638075   -0.8734345 
C    -0.5039017    5.1571411   -1.1971404 
C    -2.5550835    6.1376317   -1.8136170 
C    -2.0912496    6.2992127   -3.0730728 
C    -0.8396940    5.8917985   -3.4035033 
C    -0.0362224    5.3155498   -2.4665286 
H     0.1167750    4.6832158   -0.4360681 
H    -2.7369580    6.7583872   -3.8136625 
H    -0.4901153    6.0319960   -4.4229041 
H    -2.1268103    5.4234573    0.1374754 
C     1.3635508    4.8622744   -2.8363442 
C     1.4804696    3.3590874   -3.2278433 
H     2.0648339    5.0983210   -2.0002520 
H     1.7413835    5.4749382   -3.6838754 
C     1.4785169    2.4254721   -2.0216657 
O    -3.8509272    6.5690380   -1.5127734 
H    -4.1299056    6.3998096   -0.5525063 
O     0.3909021    2.3942147   -1.1582458 
N     0.4604170    2.9738542   -4.2214151 
H     2.4858864    3.2169490   -3.6858664 
H    -0.4846435    2.9570999   -3.7636186 
H     0.4259464    3.6743909   -4.9977823 
N     2.4849521    1.4160465   -1.8595681 
C     3.8912486    1.8067445   -1.5850056 
H     2.2090130    0.4481237   -2.1328555 
C     4.0464022    3.2963492   -1.2596841 
O     4.3490606    4.1997099   -2.2718359 
O     3.6941733    3.8104243   -0.0157678 
H     3.3646098    3.0868235    0.6073052 
C     4.8797540    1.3295629   -2.7022060 
H     4.1943738    1.2826852   -0.6522834 
C     4.2543435    0.5729783   -3.8553463 
H     5.6655178    0.6886738   -2.2457251 
H     5.4484566    2.1900511   -3.1233001 
C     3.9339252   -0.7299988   -3.8840979 
C     4.0727594   -1.6808162   -2.9248630 
C     3.6520079   -2.9478776   -3.2037940 
C     3.1046721   -3.2414157   -4.4224517 
C     2.9743658   -2.2691147   -5.3695868 
C     3.3990840   -1.0237447   -5.0699687 
H     4.5013515   -1.4459007   -1.9549969 
H     3.7501811   -3.7280393   -2.4526815 
H     2.7700710   -4.2533599   -4.6366895 
H     2.5397372   -2.4840529   -6.3398805 
N     3.3479669    0.1258811   -5.9030844 
C     3.9232015    1.1158348   -5.0398613 
H     2.9916333    0.2200238   -6.8817812 
H     4.0814962    2.1561716   -5.3152119 
