48
 energy: -9.066139028976 gnorm: 0.000526333255 xtb: 6.6.0 (2ccbbd7)
C           -0.33543225573601        6.75319747598773       -0.89951230607061
C            0.35349318863814        5.86715462755583       -0.10477672071416
C           -1.26141163856982        6.29592711400864       -1.83820696038622
C           -1.45918892676283        4.92052888700037       -1.95393389116237
C           -0.76413835717855        4.04352649529978       -1.15714379523209
C            0.14458733645983        4.49972037260287       -0.21391585104925
H            1.06541132598421        6.23326409420786        0.61499808026568
H           -2.16217146493022        4.56539284535099       -2.68624145490285
H           -0.90150818680865        2.98201521963927       -1.27086282736035
H           -0.16764543404768        7.81100043286749       -0.80370631253714
C            0.90920230194947        3.53349118864472        0.63916986212992
C            2.06089833313148        2.84374057092875       -0.11116908925052
H            0.22143491662283        2.77014408517515        1.01827019127131
H            1.29750915211912        4.05779809329610        1.51827500086384
C            1.51962378468878        1.83519159158139       -1.11533822521539
O           -1.97794108890014        7.16068217029424       -2.64343132239025
H           -1.71065706787138        8.08774795611114       -2.46291717334625
O            0.40134218777837        1.38830501743007       -0.93792347502562
N            2.93631090716488        3.83237526531614       -0.72557312478544
H            2.66934399501013        2.27302512262921        0.60866508880788
H            2.49462783480015        4.19248189371813       -1.56515043912878
H            3.10550487921326        4.60969125221394       -0.10175131011014
N            2.25868997096199        1.41131487809612       -2.20162719660942
C            3.52816200502334        1.98522619383781       -2.66080675255644
H            1.82413491190549        0.77171539336686       -2.86363138425075
C            3.28388632316103        3.24851928513720       -3.44353261101990
O            4.33547750528471        3.97082377444683       -3.92350640610598
O            1.98147760943986        3.66514683515075       -3.62497926596418
H            1.35715807665836        2.98568775410071       -3.28075509814575
C            4.34301366891441        0.93737140208538       -3.45874942952930
H            4.09381402776484        2.24658813041922       -1.75582438344460
C            5.78135809604284        0.87122391158439       -3.06206286276840
H            4.26307154421349        1.14871255027974       -4.52993516240721
H            3.89494543092689       -0.05131747859849       -3.31402386203001
C            6.66180582539020        1.98060262510140       -2.93251073582377
C            6.47416328897610        3.34941090886257       -3.13445001102532
C            7.51546676129315        4.19922446155639       -2.91263882996352
C            8.76372035073964        3.71259331165904       -2.48577909005821
C            8.97274407786462        2.37439893968480       -2.28306447717813
C            7.91045108420064        1.48847843863681       -2.50826071065116
H            5.35817577829010        3.68339679078543       -3.53337395128933
H            7.37728470436460        5.25567654138518       -3.07032121512071
H            9.56937955305205        4.40755847796456       -2.31667198383155
H            9.92418958270028        1.99477376562132       -1.95636833604025
N            7.78942828385083        0.11402621300004       -2.39523030939155
C            6.50574241357344       -0.24796388517102       -2.73012920191685
H            8.54028761864459       -0.51352109610115       -2.10160174077092
H            6.12748518074683       -1.25730641806369       -2.72023596302979
