48
Energy =
C    -2.8874612    3.5940146   -1.6392626 
C    -1.6902561    2.9621742   -1.5426069 
C    -3.9986824    2.9012168   -2.0061733 
C    -3.9038386    1.5787509   -2.2725655 
C    -2.7094651    0.9416715   -2.1779031 
C    -1.5932315    1.6316694   -1.8157546 
H    -0.8123386    3.5292207   -1.2425134 
H    -4.7977321    1.0365653   -2.5605648 
H    -2.6553427   -0.1227771   -2.3909754 
H    -2.9539792    4.6543300   -1.4207219 
C    -0.2648095    0.9186582   -1.6940674 
C    -0.1652555    0.0909897   -0.3916344 
H     0.5782011    1.6458397   -1.7426361 
H    -0.1448945    0.2503983   -2.5731680 
C     1.1131090   -0.7256636   -0.3617168 
O    -5.2473691    3.5220487   -2.1157003 
H    -5.2351580    4.5123030   -1.8972522 
O     1.0580998   -2.1085728   -0.5125595 
N    -0.2583702    0.9659553    0.7908475 
H    -0.9936678   -0.6572729   -0.3624431 
H     0.3334616    1.8212887    0.6675379 
H    -1.2475064    1.2916573    0.9057214 
N     2.3909742   -0.0806873   -0.3019339 
C     3.4144905   -0.2525790   -1.3632257 
H     2.4982163    0.6587500    0.4296591 
C     4.0892541    1.0794706   -1.6722182 
O     3.3086871    2.2203314   -1.8212143 
O     5.4626562    1.1738373   -1.9027340 
H     5.9380105    0.2911558   -1.7815968 
C     2.8917658   -0.9038576   -2.6886127 
H     4.2005938   -0.9005059   -0.9151630 
C     3.7182643   -2.1122977   -3.0618853 
H     2.8959691   -0.1732835   -3.5275772 
H     1.8381273   -1.2329114   -2.6431026 
C     4.8207415   -2.1323536   -3.8264761 
C     5.4473659   -1.1203077   -4.4805856 
C     6.5789975   -1.4078260   -5.1851627 
C     7.0637496   -2.6860049   -5.2230746 
C     6.4208857   -3.6848247   -4.5539762 
C     5.3018287   -3.3763108   -3.8660260 
H     5.0734776   -0.1004151   -4.4459665 
H     7.1011262   -0.6144877   -5.7155341 
H     7.9685001   -2.9057161   -5.7845829 
H     6.7970341   -4.7023238   -4.5669611 
N     4.5036717   -4.2556061   -3.0861121 
C     3.5051763   -3.3535519   -2.5888238 
H     4.6155024   -5.2825119   -2.9197843 
H     2.7111043   -3.6273764   -1.8915594 
