48
Energy =
C     1.1760243   -5.8328049   -3.3460913 
C     1.0378530   -4.5468495   -3.7575800 
C     2.3701528   -6.2726266   -2.8662947 
C     3.4187484   -5.4210993   -2.8016263 
C     3.2863018   -4.1341971   -3.2110419 
C     2.0940140   -3.6899196   -3.6946131 
H     0.0757984   -4.2092409   -4.1347337 
H     4.3654327   -5.7840865   -2.4172093 
H     4.1402086   -3.4647359   -3.1502211 
H     0.3288769   -6.5079597   -3.4006468 
C     1.9434740   -2.2513522   -4.1356549 
C     1.7681338   -1.2865733   -2.9385740 
H     1.0869580   -2.1367346   -4.8384999 
H     2.8453930   -1.9636650   -4.7215219 
C     1.9353234    0.1641385   -3.3774381 
O     2.5460671   -7.5907917   -2.4326415 
H     1.7153921   -8.1663397   -2.5179044 
O     1.3486938    0.5897920   -4.5639303 
N     0.4600720   -1.4840493   -2.2939316 
H     2.5670966   -1.4850879   -2.1892105 
H    -0.3063278   -1.3399191   -2.9954627 
H     0.3821709   -2.4635802   -1.9331441 
N     2.4245993    1.1567742   -2.4574101 
C     3.8917660    1.4193226   -2.4695862 
H     2.0739766    0.9163463   -1.5015118 
C     4.1394993    2.8957883   -2.7859084 
O     4.6358507    3.2837954   -4.0249245 
O     3.8719626    3.8853308   -1.8402822 
H     3.3583407    3.5132472   -1.0564147 
C     4.7105919    0.4683474   -3.3968013 
H     4.2796024    1.2753660   -1.4359123 
C     6.2074543    0.6721948   -3.2548759 
H     4.3889906    0.6122126   -4.4522674 
H     4.5078892   -0.5893736   -3.1333584 
C     7.0594581    1.1773795   -4.1657710 
C     6.8290077    1.6425747   -5.4219436 
C     7.8869869    2.1029413   -6.1489365 
C     9.1473785    2.0891330   -5.6201907 
C     9.3575166    1.6162856   -4.3595625 
C     8.2947486    1.1687389   -3.6582743 
H     5.8304501    1.6700795   -5.8468853 
H     7.7238698    2.4899229   -7.1521790 
H     9.9843477    2.4612550   -6.2059548 
H    10.3511551    1.5999811   -3.9247338 
N     8.3028696    0.6352175   -2.3419389 
C     6.9136451    0.3371922   -2.1593824 
H     9.1082881    0.4936074   -1.6896559 
H     6.4960975   -0.1083132   -1.2596987 
