48
Energy =
C    -1.5581130   -4.0174310   -0.2870248 
C    -0.5773947   -3.0797086   -0.3062351 
C    -2.5164956   -3.9846459    0.6774846 
C    -2.4872615   -3.0111168    1.6159734 
C    -1.5092519   -2.0705348    1.6012637 
C    -0.5452821   -2.1024871    0.6413843 
H     0.1783345   -3.1142235   -1.0868514 
H    -3.2585429   -2.9939016    2.3781181 
H    -1.5042755   -1.2931775    2.3614271 
H    -1.5754000   -4.7921310   -1.0457878 
C     0.5351199   -1.0462134    0.6139648 
C     0.0429900    0.2868072    0.0066018 
H     1.4193715   -1.4070368    0.0499111 
H     0.8923713   -0.8665793    1.6542707 
C     1.1187861    1.3514593    0.1361399 
O    -3.5405761   -4.9361669    0.7260367 
H    -3.4957178   -5.6284436   -0.0135097 
O     1.5104009    1.7568004    1.4074485 
N    -0.3977358    0.1011740   -1.3890165 
H    -0.8067253    0.6774427    0.6151204 
H     0.2958560   -0.4845018   -1.9077882 
H    -1.3050830   -0.4222072   -1.3978625 
N     1.7157032    1.9837405   -1.0046034 
C     3.1738107    2.2009922   -0.9649920 
H     1.1298113    2.1689306   -1.8499305 
C     3.4960853    3.6932260   -0.9686894 
O     4.3772223    4.2137143   -1.9113607 
O     2.9771120    4.5511763   -0.0016581 
H     2.3455864    4.0604644    0.6201155 
C     3.8421008    1.4608160   -2.1468417 
H     3.6035964    1.8278696   -0.0093549 
C     3.5671302   -0.0266272   -2.1387582 
H     4.9420856    1.6288167   -2.1297457 
H     3.4778061    1.9061251   -3.1007885 
C     4.0465299   -0.9374612   -1.2761456 
C     4.8821134   -0.7820701   -0.2174023 
C     5.2035530   -1.8832248    0.5225271 
C     4.6941559   -3.1089233    0.1931155 
C     3.8639157   -3.2423799   -0.8796299 
C     3.5623668   -2.1395063   -1.5957479 
H     5.2895297    0.1903549    0.0419646 
H     5.8671822   -1.7877095    1.3801697 
H     4.9528517   -3.9822669    0.7879454 
H     3.4519028   -4.2078368   -1.1548766 
N     2.7147226   -2.0608355   -2.7318886 
C     2.7743275   -0.6581855   -3.0217341 
H     2.1795983   -2.8176999   -3.2170459 
H     2.2372495   -0.1753049   -3.8360087 
