48
Energy =
C     1.3585201   -3.4899954    2.9484957 
C     0.6465448   -2.7028996    2.1026941 
C     2.1045192   -2.9310070    3.9374277 
C     2.1244647   -1.5873825    4.0791753 
C     1.4118026   -0.7964946    3.2385721 
C     0.6857598   -1.3444011    2.2239424 
H     0.0372571   -3.1727542    1.3359962 
H     2.7140530   -1.1515843    4.8779888 
H     1.4246603    0.2786330    3.3904922 
H     1.3236369   -4.5682543    2.8361950 
C    -0.1328404   -0.4618851    1.2914173 
C     0.5854813    0.0462797    0.0034853 
H    -0.5054162    0.4191294    1.8604480 
H    -1.0475929   -1.0145420    0.9835441 
C     1.6393487    1.1236497    0.2347021 
O     2.8492879   -3.7139601    4.8257399 
H     2.7837752   -4.7104889    4.6505365 
O     2.4536290    1.1265311    1.3609670 
N     1.1252413   -1.0464346   -0.8314225 
H    -0.2099879    0.5730594   -0.5752953 
H     0.9892698   -1.9866675   -0.4039189 
H     0.6256489   -1.0653321   -1.7512089 
N     1.8535051    2.1335001   -0.7619602 
C     3.2300770    2.2917785   -1.2644105 
H     1.0474390    2.6980984   -1.1166655 
C     3.4368378    3.6778501   -1.8690739 
O     2.5178237    4.1679351   -2.7905686 
O     4.5728856    4.4418700   -1.5942592 
H     5.1980377    3.9941321   -0.9417501 
C     3.5155121    1.1825020   -2.2972575 
H     3.9402700    2.2017203   -0.4101397 
C     4.9774114    1.1388791   -2.6831730 
H     2.8691084    1.3206118   -3.1918307 
H     3.2369286    0.1964993   -1.8652788 
C     5.5668496    1.7718909   -3.7109017 
C     5.0301387    2.5709240   -4.6689464 
C     5.8621935    3.1059513   -5.6076276 
C     7.2026490    2.8377404   -5.5766449 
C     7.7199873    2.0341559   -4.6046098 
C     6.8765753    1.5166184   -3.6868404 
H     3.9680069    2.7969569   -4.6926716 
H     5.4567618    3.7560647   -6.3794813 
H     7.8590679    3.2726602   -6.3262394 
H     8.7818994    1.8169008   -4.5622478 
N     7.2114944    0.6746020   -2.5923502 
C     5.9249789    0.4823185   -1.9905053 
H     8.1447067    0.2984796   -2.3062303 
H     5.7474984   -0.1023252   -1.0895859 
