48
Energy =
C     0.4066620    0.8989344    4.1651629 
C     0.2073344    0.6543334    2.8436145 
C     0.9251116   -0.0672640    4.9680877 
C     1.2403672   -1.2726668    4.4440591 
C     1.0454010   -1.5216137    3.1244524 
C     0.5284408   -0.5575669    2.3120123 
H    -0.2109728    1.4363298    2.2136104 
H     1.6522973   -2.0355117    5.0958614 
H     1.3079779   -2.4974653    2.7251797 
H     0.1518994    1.8691787    4.5791003 
C     0.3242123   -0.8374502    0.8326447 
C     1.5031011   -0.3919487   -0.0819994 
H    -0.6187222   -0.3563392    0.4860586 
H     0.1603083   -1.9278270    0.6861386 
C     1.4930384    1.0943146   -0.4376362 
O     1.1427551    0.1516174    6.3317123 
H     0.8916026    1.0822388    6.6474050 
O     0.5109289    1.9302761    0.0760911 
N     2.8002677   -0.8117773    0.4782092 
H     1.3659276   -0.9031454   -1.0628655 
H     2.9911314   -0.2870194    1.3658100 
H     2.7706493   -1.8310766    0.7130296 
N     2.1969482    1.5582146   -1.5919994 
C     3.6716930    1.5744619   -1.5541587 
H     1.6364586    1.8155529   -2.4343351 
C     4.2284429    2.8973821   -2.0505571 
O     4.6548468    3.8530442   -1.1362527 
O     4.3569872    3.1566536   -3.4157513 
H     3.9028318    2.3149466   -4.0419603 
C     4.2343828    0.3850128   -2.3651627 
H     4.0374536    1.4929684   -0.5037343 
C     3.6074100    0.2450990   -3.7461863 
H     4.0952179   -0.5325050   -1.7640939 
H     5.3332872    0.5073815   -2.4951219 
C     3.1792328   -0.8996125   -4.3014829 
C     3.1548345   -2.1580728   -3.7785302 
C     2.6746637   -3.1769564   -4.5449537 
C     2.2334131   -2.9348973   -5.8125008 
C     2.2725912   -1.6726722   -6.3196629 
C     2.7507629   -0.6753712   -5.5426357 
H     3.5050149   -2.3722680   -2.7754162 
H     2.6460500   -4.1881095   -4.1457860 
H     1.8535289   -3.7521735   -6.4207023 
H     1.9305116   -1.4667694   -7.3284040 
N     2.8704206    0.6864555   -5.9293000 
C     3.3997184    1.3828781   -4.7445409 
H     2.6245196    1.0751297   -6.8714007 
H     3.4537355    2.3974964   -5.2027522 
