48
Energy =
C     1.1265371   -2.1781832   -3.3303259 
C     0.2136436   -1.1779935   -3.2428867 
C     2.2619668   -2.0054899   -4.0585906 
C     2.4678730   -0.8373449   -4.7087457 
C     1.5574586    0.1650550   -4.6260881 
C     0.4251337    0.0017542   -3.8892899 
H    -0.6801789   -1.3233943   -2.6419712 
H     3.3809437   -0.7033888   -5.2794604 
H     1.7557071    1.1061733   -5.1347255 
H     0.9528844   -3.1106199   -2.8044417 
C    -0.5530664    1.1434640   -3.7300717 
C    -0.2673465    1.9620780   -2.4479506 
H    -1.5868504    0.7342829   -3.6956161 
H    -0.5177454    1.8105200   -4.6216612 
C     1.0773601    2.6717854   -2.5022607 
O     3.2386321   -3.0034505   -4.1386327 
H     2.9971266   -3.8574594   -3.6478416 
O     1.3945540    3.4631274   -3.6015524 
N    -1.3544094    2.9268841   -2.2201194 
H    -0.2169982    1.2693985   -1.5763284 
H    -1.4300537    3.5696139   -3.0463022 
H    -2.2673602    2.4214717   -2.1352029 
N     1.8440387    2.8304304   -1.2986267 
C     3.1227538    2.1056199   -1.1832643 
H     1.4806481    3.4602404   -0.5480453 
C     4.0650956    2.3842097   -2.3622369 
O     4.2597931    1.4267695   -3.3532482 
O     4.7444437    3.5983728   -2.4672248 
H     4.4037135    4.2696657   -1.7943059 
C     2.8323136    0.6069257   -0.9476855 
H     3.6551961    2.4944186   -0.2869418 
C     4.0704918   -0.1575416   -0.5333305 
H     2.4098025    0.1573438   -1.8686298 
H     2.0575216    0.4960494   -0.1581221 
C     4.6297332   -0.1752627    0.6864861 
C     4.2423896    0.4462598    1.8299023 
C     4.9965529    0.2664842    2.9521578 
C     6.1131546   -0.5225187    2.9149951 
C     6.4819957   -1.1370699    1.7550488 
C     5.7190327   -0.9442112    0.6588029 
H     3.3559461    1.0726962    1.8603557 
H     4.7090497    0.7534613    3.8808188 
H     6.7099641   -0.6598829    3.8131764 
H     7.3653214   -1.7647927    1.7074211 
N     5.9263884   -1.4840569   -0.6382055 
C     4.8155673   -0.9231377   -1.3516771 
H     6.6801745   -2.1219665   -0.9824993 
H     4.6170149   -1.0881336   -2.4108564 
