48
Energy =
C     2.1488143   -1.1898729    3.0145448 
C     1.9682066    0.0428679    2.4745596 
C     1.1251356   -2.0839623    3.0321529 
C    -0.0750786   -1.7359064    2.5154938 
C    -0.2612827   -0.5047530    1.9765570 
C     0.7613838    0.3934900    1.9512830 
H     2.7965358    0.7503751    2.4550169 
H    -0.8837792   -2.4579631    2.5351366 
H    -1.2319278   -0.2463852    1.5617143 
H     3.1165976   -1.4635205    3.4209083 
C     0.5628030    1.7637497    1.3331403 
C     1.0024710    1.8442189   -0.1514907 
H     1.1300794    2.5232647    1.9182805 
H    -0.5033868    2.0690673    1.4143706 
C     2.4947251    1.5968928   -0.3423539 
O     1.2823539   -3.3674137    3.5652086 
H     2.1932823   -3.5331697    3.9788729 
O     3.3826567    2.1333703    0.5894608 
N     0.1775616    0.9565716   -0.9886579 
H     0.8455816    2.8924379   -0.4936030 
H     0.3139158   -0.0358206   -0.6881709 
H    -0.8335905    1.1907347   -0.8561339 
N     3.0064629    1.2294835   -1.6326387 
C     4.4132836    0.7938545   -1.7193198 
H     2.3688125    1.2169523   -2.4608258 
C     5.2107346    1.7531479   -2.5918342 
O     5.8018327    1.3054844   -3.7689090 
O     5.3944102    3.0829437   -2.2172861 
H     4.8747673    3.3019014   -1.3757039 
C     4.4681136   -0.6589898   -2.2377302 
H     4.9204342    0.8373825   -0.7276566 
C     3.8260646   -1.6221443   -1.2640780 
H     5.5290722   -0.9607203   -2.3924326 
H     3.9867364   -0.7189715   -3.2376114 
C     2.5868075   -2.1365170   -1.3264661 
C     1.6102404   -1.9558833   -2.2530069 
C     0.4234697   -2.6061715   -2.0799269 
C     0.2324550   -3.4185926   -0.9968083 
C     1.2279001   -3.5877248   -0.0814819 
C     2.3917166   -2.9325625   -0.2735574 
H     1.7532657   -1.3045766   -3.1094890 
H    -0.3749565   -2.4754860   -2.8067687 
H    -0.7154626   -3.9346202   -0.8655318 
H     1.0939398   -4.2290560    0.7845285 
N     3.5437513   -2.9719956    0.5559485 
C     4.4222060   -2.0884360   -0.1522595 
H     3.6925168   -3.5006876    1.4460087 
H     5.4306660   -1.8363404    0.1686128 
