48
Energy =
C     0.3153849    0.7911368    2.1864577 
C    -0.0943228    0.4473478    0.9394724 
C     1.4561397    1.5104620    2.3569777 
C     2.1833932    1.8752684    1.2768273 
C     1.7778440    1.5354058    0.0277649 
C     0.6327008    0.8202782   -0.1508826 
H    -1.0104623   -0.1252241    0.8203702 
H     3.0943687    2.4445068    1.4244956 
H     2.3716243    1.8495759   -0.8258565 
H    -0.2732656    0.4907140    3.0465166 
C     0.1623795    0.4496597   -1.5448825 
C     0.8038464   -0.8454128   -2.1075941 
H     0.3680989    1.2946813   -2.2406291 
H    -0.9434070    0.3323742   -1.5506970 
C     2.2928326   -0.7016871   -2.3982720 
O     1.9043665    1.8819301    3.6293808 
H     1.2792199    1.6109730    4.3806679 
O     2.7509465    0.5047228   -2.9219800 
N     0.5151215   -1.9997238   -1.2384206 
H     0.3439104   -1.0355974   -3.1044302 
H     0.9210723   -1.8348880   -0.2877586 
H    -0.5208627   -2.0944131   -1.1209936 
N     3.0787769   -1.8749537   -2.6532380 
C     4.5338690   -1.7765857   -2.4350500 
H     2.6030012   -2.7744503   -2.8926367 
C     5.2844494   -2.0208887   -3.7394964 
O     6.0325568   -3.1811676   -3.9113528 
O     5.2444587   -1.0947931   -4.7802908 
H     4.5953769   -0.3434734   -4.5845095 
C     4.9553693   -2.7686503   -1.3303190 
H     4.8295201   -0.7469210   -2.1259130 
C     4.2853748   -2.4654690   -0.0105958 
H     6.0597174   -2.7368001   -1.1942475 
H     4.7126641   -3.8064050   -1.6543309 
C     4.6128845   -1.4923718    0.8526245 
C     5.6029459   -0.5656323    0.7849487 
C     5.7261854    0.3258574    1.8098322 
C     4.8715569    0.2742199    2.8760293 
C     3.8881405   -0.6683167    2.9234443 
C     3.7807974   -1.5332506    1.8941432 
H     6.2866712   -0.5277739   -0.0580808 
H     6.5086975    1.0804556    1.7802707 
H     4.9683355    0.9922071    3.6872935 
H     3.1990414   -0.7154278    3.7597414 
N     2.8280506   -2.5765356    1.7437702 
C     3.2259979   -3.1301222    0.4811170 
H     2.0474810   -2.8524994    2.3828502 
H     2.7211061   -3.9536131   -0.0218052 
