48
Energy =
C    -3.6927552    0.6312270   -2.0652446 
C    -2.6311133    1.4607567   -1.8981408 
C    -3.5109801   -0.6182212   -2.5708414 
C    -2.2669084   -1.0290535   -2.9046797 
C    -1.2036466   -0.2036848   -2.7390763 
C    -1.3785334    1.0483435   -2.2385648 
H    -2.7922700    2.4544706   -1.4885300 
H    -2.1333945   -2.0279088   -3.3046587 
H    -0.2135759   -0.5507834   -3.0064403 
H    -4.6867367    0.9690745   -1.7923628 
C    -0.1862151    1.9599992   -2.0414938 
C     0.7031077    1.5362252   -0.8421822 
H    -0.5182285    3.0137294   -1.9046187 
H     0.4145531    1.9380061   -2.9783619 
C     1.9007783    2.4626686   -0.6390692 
O    -4.5819073   -1.4985857   -2.7550352 
H    -5.4811131   -1.1157444   -2.4837011 
O     2.5310156    2.5026664    0.6011997 
N    -0.1012998    1.4586047    0.3893395 
H     1.1424779    0.5354640   -1.0475669 
H    -0.6103957    2.3599323    0.5475194 
H    -0.8079249    0.6899239    0.3198682 
N     2.5536749    3.0944420   -1.7520711 
C     3.9988704    2.8425237   -1.9156883 
H     1.9894437    3.6043988   -2.4690126 
C     4.6606400    3.8448746   -2.8579873 
O     3.8988096    4.5579127   -3.7767365 
O     6.0438543    4.0214792   -2.8695142 
H     6.5087595    3.4841887   -2.1531666 
C     4.2599885    1.3712412   -2.3322708 
H     4.5005596    3.0244206   -0.9364173 
C     3.3839391    0.8566981   -3.4657287 
H     4.1115860    0.7517583   -1.4239891 
H     5.3250863    1.2382990   -2.6248559 
C     2.7829195   -0.3479387   -3.5289388 
C     2.7428966   -1.3581290   -2.6180167 
C     2.0762985   -2.5026826   -2.9438454 
C     1.4720808   -2.6274095   -4.1632945 
C     1.5288471   -1.6070558   -5.0643074 
C     2.1872074   -0.4815718   -4.7164729 
H     3.2278529   -1.2791866   -1.6509527 
H     2.0317083   -3.3241211   -2.2319668 
H     0.9491145   -3.5461826   -4.4182815 
H     1.0623152   -1.6923944   -6.0402140 
N     2.3828089    0.6719246   -5.5165323 
C     3.1843494    1.4801845   -4.6443461 
H     2.0385586    0.8768023   -6.4834972 
H     3.6136133    2.4367261   -4.9341556 
