48
 energy: -9.292902511474 gnorm: 0.000838041267 xtb: 6.6.0 (2ccbbd7)
C            3.01608177196100        4.87119586500970       -2.19639226058146
C            2.44997898401255        3.73324702965309       -2.71801781871130
C            2.23956042013931        5.79523142733150       -1.49788920451595
C            0.87866443813958        5.53153698281521       -1.35088559635395
C            0.32469549379497        4.38224744267859       -1.86220314052133
C            1.10174315555597        3.46030776134012       -2.54898361344613
H            3.06790211581886        3.03036115904109       -3.24577663061332
H            0.27760306925377        6.24305597631784       -0.81345450310784
H           -0.72478538810779        4.18580187057041       -1.72541352213533
H            4.07374900958830        5.03962316122790       -2.29489329102353
C            0.50381181042379        2.17423184488600       -3.03011814198493
C            0.54568534156296        1.04107479332023       -1.98789642906620
H            1.01743375429708        1.85191404093602       -3.94090175288900
H           -0.53383548936754        2.36261764412498       -3.32476247864930
C            1.92408504382930        0.42943470789922       -1.85811361444688
O            2.78014990577268        6.94435879534082       -0.95407664761790
H            3.75584131369642        6.93552414960594       -1.05436564862857
O            2.13430435640279       -0.65779325846042       -2.35795983569729
N            0.04925166624675        1.45804292741411       -0.68420200352007
H           -0.10729555201629        0.21931614467551       -2.32682045973450
H            0.66426357749822        2.15213175213865       -0.28177874245384
H           -0.87064203762719        1.87334773113765       -0.76365737274360
N            2.88694237958446        1.14316059914838       -1.18679677585639
C            4.25582866387424        0.67657975335818       -1.02876200560366
H            2.73099361868688        2.10421967251028       -0.86217167210095
C            5.10121789625548        1.81080066153981       -0.48213869323542
O            4.72452181555909        2.94514837475353       -0.68164399999155
O            6.24614335402550        1.47106705908800        0.16253971174850
H            6.34746073936917        0.49564120208020        0.22405043885122
C            4.84062556397226        0.14279480112231       -2.33875511674586
H            4.22293511666562       -0.12820161897387       -0.27994441364355
C            4.85499524108296        1.15540102624073       -3.43346637710455
H            4.25521316697689       -0.72332448855085       -2.66333724009135
H            5.86074900907595       -0.21802705092517       -2.17336331869236
C            4.02998136309538        1.16721408215386       -4.59833574285795
C            3.00619578386664        0.32033204702678       -5.05595519734612
C            2.37655776684984        0.62521112750367       -6.23036434513057
C            2.73133344845768        1.76511664021999       -6.96978586439533
C            3.71308448080561        2.61331140938607       -6.53613860343433
C            4.37144937930422        2.31682001919996       -5.33627315056097
H            2.70258312875909       -0.52043585491210       -4.45787276901429
H            1.58759982185425       -0.01328512370232       -6.59171886138794
H            2.21535031183915        1.97672590516562       -7.89163208274721
H            3.98457253197761        3.49358477202012       -7.09056727958063
N            5.35448945916292        2.98667170231928       -4.62982336546197
C            5.63914546124974        2.28043217716238       -3.48818513901441
H            5.78698153711873        3.86487790110943       -4.92173266909943
H            6.33666508110500        2.58987744041372       -2.72575625444896
