48
Energy =
C     5.2164194    4.7706576    4.4839760 
C     4.4932633    4.2232341    3.4748365 
C     4.9055434    4.4905028    5.7776918 
C     3.8722281    3.6623249    6.0525212 
C     3.1452923    3.1116935    5.0473525 
C     3.4493763    3.3927926    3.7506183 
H     4.7577056    4.4534901    2.4451488 
H     3.6367793    3.4448853    7.0885595 
H     2.3218149    2.4442492    5.2881859 
H     6.0448159    5.4313476    4.2526129 
C     2.6525056    2.7633365    2.6291249 
C     3.0952903    1.3046067    2.3620432 
H     2.7481513    3.3749007    1.7057302 
H     1.5734483    2.7834232    2.9016257 
C     2.1616389    0.5617749    1.4136376 
O     5.6306302    5.0376102    6.8413539 
H     6.3886677    5.6463799    6.5524756 
O     1.5268204   -0.5794899    1.8876811 
N     4.4945090    1.2378830    1.9028424 
H     3.0081440    0.7360323    3.3215404 
H     4.7642425    2.0924783    1.3633151 
H     5.1278944    1.2299573    2.7376657 
N     1.7078691    1.0961302    0.1550661 
C     2.7686478    1.2624318   -0.8756299 
H     1.1834917    1.9740937    0.3605177 
C     3.3081593    2.6955373   -0.9249006 
O     4.6797500    2.9083919   -0.9434025 
O     2.4672329    3.8043055   -1.0404446 
H     1.5084301    3.5490857   -1.2212350 
C     2.1705457    0.8919981   -2.2587915 
H     3.6685212    0.6391368   -0.6729135 
C     2.1351692   -0.5622700   -2.7346376 
H     2.7311638    1.4516264   -3.0451100 
H     1.1273537    1.2780808   -2.3029332 
C     2.3827260   -1.7505481   -2.1212327 
C     2.7842481   -2.0544544   -0.8572913 
C     2.9509587   -3.3616865   -0.5089867 
C     2.7227793   -4.3528662   -1.4165014 
C     2.3258716   -4.0423217   -2.6787023 
C     2.1654694   -2.7412847   -2.9999980 
H     2.9781503   -1.3117395   -0.1140470 
H     3.2642328   -3.6131815    0.5021713 
H     2.8564050   -5.3929517   -1.1290435 
H     2.1384456   -4.8180683   -3.4135894 
N     1.7553000   -2.2377396   -4.2575982 
C     1.7570712   -0.8339005   -4.0007147 
H     1.5168110   -2.7561356   -5.1346016 
H     1.4757919   -0.0857198   -4.7398115 
