48
Energy =
C     2.6356519    4.1796693   -7.8054612 
C     3.0038113    3.2640542   -6.8742669 
C     1.3710628    4.1768156   -8.3047859 
C     0.4818320    3.2563542   -7.8678084 
C     0.8436394    2.3379297   -6.9366993 
C     2.1094830    2.3337024   -6.4358848 
H     4.0197931    3.2856454   -6.4860685 
H    -0.5245593    3.2659049   -8.2730541 
H     0.1119904    1.6086996   -6.5967557 
H     3.3553311    4.9152360   -8.1491535 
C     2.5046020    1.3214653   -5.3830551 
C     1.9860177    1.7224576   -3.9792795 
H     3.6107872    1.1936543   -5.3705736 
H     2.0833456    0.3294644   -5.6629746 
C     2.1563033    0.6251092   -2.9287374 
O     0.9595107    5.1068661   -9.2641470 
H     1.6816601    5.7624845   -9.5433720 
O     1.0298199    0.2375129   -2.2163737 
N     2.5787855    2.9952189   -3.5283546 
H     0.8756931    1.8510728   -4.0434266 
H     3.5255792    3.1652836   -3.9427692 
H     1.9798406    3.7889095   -3.8573956 
N     3.3128904   -0.2309715   -2.8550186 
C     4.4766692    0.3963778   -2.1960159 
H     3.5438608   -0.6431806   -3.7848968 
C     5.2343684    1.2966721   -3.1497247 
O     6.6043795    1.5266487   -3.1713527 
O     5.6900945    2.5801751   -2.8525090 
H     5.1969490    2.9858677   -2.0659932 
C     5.3918708   -0.7235562   -1.6647088 
H     4.1480362    1.0232710   -1.3334160 
C     4.7813316   -1.4029806   -0.4607666 
H     6.3913613   -0.3124521   -1.3926844 
H     5.5786683   -1.4730219   -2.4654442 
C     4.8772228   -1.0083691    0.8180115 
C     5.5457975    0.0438744    1.3564636 
C     5.4742837    0.2348936    2.7053387 
C     4.7408375   -0.6162745    3.4856757 
C     4.0737426   -1.6631814    2.9212238 
C     4.1629403   -1.8329758    1.5853811 
H     6.1233906    0.7239068    0.7366266 
H     6.0012885    1.0697220    3.1613211 
H     4.6859397   -0.4561490    4.5595874 
H     3.4819557   -2.3441426    3.5233286 
N     3.5370170   -2.8403629    0.8036183 
C     3.9814671   -2.4813858   -0.5121176 
H     2.9253891   -3.6332488    1.1036477 
H     3.6787485   -2.9870048   -1.4259538 
