48
 energy: -8.842789699980 gnorm: 0.000773897281 xtb: 6.6.0 (2ccbbd7)
C            4.26956673296624        1.24412327655011        4.94081566752498
C            4.74837716931020        0.86122631586581        3.70877655369774
C            2.92030546327913        1.55829781809168        5.11678633843192
C            2.07599933195015        1.47701632845135        4.00870869369321
C            2.57026092056030        1.09469934254171        2.79051125353392
C            3.90245502671889        0.77166687167619        2.61060239819124
H            5.79275002441164        0.63003283553739        3.58549464391208
H            1.03641954965183        1.72425643830318        4.12849555398533
H            1.87006524982098        1.03281865990654        1.78018554949799
H            4.93413336277829        1.30897495532307        5.78368122977712
C            4.44140177946382        0.38398050074293        1.26224043862238
C            3.42685730692843       -0.31929542036153        0.34499011601279
H            5.30698014867984       -0.27145626779024        1.40164092184905
H            4.82576307698530        1.27694491548891        0.76267171842848
C            2.35808681392776        0.62566049640345       -0.13619486518984
O            2.40923065517577        1.94405625152903        6.34112326412681
H            3.12384488139312        1.96089589023652        7.01412403618468
O            1.37718576574473        0.95511733726723        0.76627472340149
N            4.06910175028795       -1.06739090579332       -0.73272166177672
H            2.89827690692849       -1.07250174368330        0.95326767855348
H            4.61720779867986       -0.46534820756249       -1.33004994419421
H            4.70525685087232       -1.76077616118124       -0.35815258678689
N            2.32266694976848        1.20942186935376       -1.41045931355046
C            3.52930306414308        1.74215353907799       -2.05325424004613
H            1.57630099542195        1.89682824155874       -1.50056322407111
C            3.33088706808394        3.17430691155057       -2.44137421280274
O            4.38279344919304        4.02990299201325       -2.29752780093164
O            2.10200749672854        3.53929653936994       -2.94869001526753
H            1.62383486969789        2.75618119840950       -3.30331832231913
C            3.98468503650002        0.89966511638027       -3.26305686094122
H            4.31806618089258        1.71974408558475       -1.28996855830924
C            5.46144795026669        0.66390657654210       -3.27575200310234
H            3.68028570630496        1.38941238927649       -4.19358968410360
H            3.46196705001877       -0.06285590812232       -3.24756155135215
C            6.48022088452126        1.56913726296840       -2.84816307674084
C            6.45604825115429        2.88903289725940       -2.37579227835853
C            7.62726424813561        3.49349510174629       -2.03010578948727
C            8.85273364968638        2.81588120885682       -2.14168237541944
C            8.90803538219762        1.52966429371449       -2.60566979171158
C            7.71213674676458        0.89437059542575       -2.96502846600422
H            5.38191634307556        3.49081801740904       -2.31876801912655
H            7.61075237625912        4.50966405790244       -1.67299182882256
H            9.76234568115430        3.32099954801449       -1.86185176012068
H            9.84082176176599        1.00307478167106       -2.69877983827627
N            7.44603880574861       -0.37064618319476       -3.45802856330019
C            6.09242612481221       -0.49635688277556       -3.65170962869662
H            8.15659407906852       -1.07407495633542       -3.66803195772604
H            5.60288211454111       -1.38290922233551       -4.02122706634006
