48
Energy =
C     1.8420715    4.3938020    1.7950930 
C     1.4524418    4.0168276    0.5513948 
C     0.9390577    4.4349199    2.8108683 
C    -0.3487228    4.0986253    2.5735889 
C    -0.7434941    3.7207185    1.3322833 
C     0.1568366    3.6733094    0.3116130 
H     2.1855358    3.9897661   -0.2496860 
H    -1.0591751    4.1359670    3.3910128 
H    -1.7830191    3.4557654    1.1626039 
H     2.8776506    4.6616155    1.9736001 
C    -0.2766833    3.2464524   -1.0763587 
C    -0.2109957    1.7159358   -1.3154204 
H     0.3515237    3.7615648   -1.8374452 
H    -1.3109810    3.6068147   -1.2697214 
C     1.1920641    1.1426112   -1.1616737 
O     1.3058876    4.8216305    4.1047257 
H     2.2904076    5.0455607    4.2016653 
O     1.7534678    0.9481216    0.0965433 
N    -1.1824927    0.9996813   -0.4734111 
H    -0.4921409    1.5417506   -2.3787408 
H    -0.8773766    1.0432276    0.5287285 
H    -2.1213602    1.4569809   -0.5383185 
N     2.0001617    0.8925854   -2.3181351 
C     3.1980193    1.7391383   -2.4785921 
H     1.7139623    0.1350550   -2.9755465 
C     2.8741678    3.0815371   -3.1207234 
O     3.5577172    4.2115396   -2.6911912 
O     1.9390739    3.2178526   -4.1467483 
H     1.5886115    2.3207099   -4.4469523 
C     4.3109036    0.9614028   -3.2205620 
H     3.6066941    1.9983250   -1.4708741 
C     3.9661062    0.6135665   -4.6543232 
H     4.5251400    0.0249341   -2.6572272 
H     5.2551949    1.5495342   -3.1999395 
C     4.1506874    1.3811276   -5.7415774 
C     4.6818524    2.6263856   -5.8516468 
C     4.7524460    3.1947578   -7.0894589 
C     4.3021135    2.5164275   -8.1879987 
C     3.7773247    1.2654771   -8.0546390 
C     3.7152753    0.7262023   -6.8190426 
H     5.0361647    3.1716574   -4.9818291 
H     5.1646953    4.1946210   -7.2013433 
H     4.3605171    2.9770502   -9.1707175 
H     3.4157909    0.7133402   -8.9152063 
N     3.2102842   -0.5530016   -6.4658385 
C     3.4144801   -0.5480729   -5.0478920 
H     2.7983919   -1.2932328   -7.0786647 
H     3.1689960   -1.3788452   -4.3901006 
