48
Energy =
C    -0.9099025    6.4310517   -0.9418121 
C    -0.3984117    5.4690666   -0.1283653 
C    -0.6923525    6.3795428   -2.2859203 
C     0.0380070    5.3673362   -2.8065299 
C     0.5456758    4.4127364   -1.9904458 
C     0.3239286    4.4433359   -0.6551324 
H    -0.5682994    5.5301200    0.9434684 
H     0.2093558    5.3330271   -3.8761508 
H     1.1816872    3.4845527   -2.3402805 
H    -1.4882219    7.2430400   -0.5142049 
C     0.9560280    3.3808506    0.2341568 
C     0.9303869    1.9422526   -0.3703979 
H     0.4264660    3.3624834    1.2121007 
H     2.0078856    3.6768451    0.4497354 
C     1.8701412    1.7677663   -1.5805521 
O    -1.2057415    7.3511155   -3.1506463 
H    -1.7353213    8.0786090   -2.6825221 
O     1.7771752    2.6217762   -2.6825744 
N     1.2234600    0.9646879    0.6918275 
H    -0.0918386    1.7354900   -0.7668688 
H     2.1111146    1.2222288    1.1868097 
H     0.4592523    0.9775407    1.4079237 
N     2.7071164    0.6115067   -1.7049451 
C     4.1055143    0.8010899   -1.2119123 
H     2.6738703    0.3492887   -2.7167797 
C     4.3979651    2.1325323   -0.4912358 
O     4.6036535    2.1324125    0.8834164 
O     4.4768761    3.3493753   -1.1723930 
H     4.2174610    3.2479159   -2.1429858 
C     5.1215431    0.5125911   -2.3485686 
H     4.2656116    0.0280858   -0.4263791 
C     6.5483843    0.5191664   -1.8440928 
H     5.0055045    1.2584699   -3.1659049 
H     4.9047375   -0.4798312   -2.8023684 
C     7.1932375   -0.4931329   -1.2428478 
C     6.7691488   -1.7528792   -0.9651297 
C     7.6276600   -2.5992304   -0.3270706 
C     8.8808876   -2.1778357    0.0226495 
C     9.2829784   -0.9066523   -0.2626904 
C     8.4165361   -0.0892362   -0.8970904 
H     5.7723256   -2.0874725   -1.2359418 
H     7.3125604   -3.6129853   -0.0920218 
H     9.5579309   -2.8573157    0.5341347 
H    10.2708574   -0.5543348    0.0137895 
N     8.6280259    1.2656992   -1.2682572 
C     7.3653406    1.5871723   -1.8682735 
H     9.4783469    1.8614379   -1.1418073 
H     7.0947943    2.5713358   -2.2493313 
