48
Energy =
C     1.0290276    6.5256168    2.2950613 
C     1.6287039    5.6716732    1.4278492 
C    -0.0185862    6.1058223    3.0537088 
C    -0.4592139    4.8322619    2.9384446 
C     0.1368221    3.9736409    2.0728779 
C     1.1834169    4.3901256    1.3092424 
H     2.4672988    6.0222869    0.8312925 
H    -1.2953358    4.5093861    3.5489419 
H    -0.2303774    2.9532870    1.9950814 
H     1.3904930    7.5445366    2.3805726 
C     1.8604022    3.4274031    0.3599704 
C     2.8260350    2.4653157    1.0946019 
H     2.4032868    3.9818158   -0.4386355 
H     1.0765624    2.8377336   -0.1689790 
C     3.3284805    1.3788757    0.1563580 
O    -0.6571977    6.9599497    3.9589108 
H    -0.2736505    7.8984925    3.9797248 
O     2.4162141    0.4873136   -0.3963589 
N     3.9368820    3.2092529    1.7155937 
H     2.2653118    1.9201803    1.8883909 
H     4.3553258    3.8770302    1.0239851 
H     3.5687886    3.7836163    2.5095132 
N     4.7314054    1.1192204   -0.0014301 
C     5.3709692    1.4917097   -1.2767898 
H     5.2531675    0.6818653    0.7901457 
C     5.1971809    2.9808960   -1.5873455 
O     4.1008458    3.4224703   -2.3195726 
O     6.0606056    3.9377952   -1.0505655 
H     6.7892549    3.5154622   -0.4931371 
C     4.8614130    0.5598726   -2.3986095 
H     6.4646331    1.3180124   -1.1697222 
C     5.7000586    0.6727963   -3.6544739 
H     3.7887609    0.7592546   -2.6116145 
H     4.9042584   -0.4926077   -2.0400710 
C     5.3831365    1.3038049   -4.7985684 
C     4.2541217    1.9746033   -5.1467475 
C     4.1867233    2.5313589   -6.3899955 
C     5.2344717    2.4095350   -7.2596139 
C     6.3568701    1.7299881   -6.8910965 
C     6.4006387    1.1890510   -5.6553570 
H     3.4182702    2.0772753   -4.4622828 
H     3.2950346    3.0771779   -6.6889250 
H     5.1728182    2.8574635   -8.2481781 
H     7.1970940    1.6242484   -7.5688103 
N     7.4686429    0.4481533   -5.0827967 
C     6.9333776    0.1528696   -3.7874313 
H     8.3936773    0.1894482   -5.4958772 
H     7.4588871   -0.4120550   -3.0215406 
