48
Energy =
C     0.9007896   -1.8634346   -8.6063396 
C     1.1677630   -1.9702855   -7.2801113 
C     1.6277369   -1.0170088   -9.3845585 
C     2.6183330   -0.2822834   -8.8284376 
C     2.8891587   -0.3853202   -7.5033300 
C     2.1668600   -1.2330678   -6.7204984 
H     0.5770573   -2.6494664   -6.6707219 
H     3.1923070    0.3903472   -9.4563963 
H     3.6881661    0.2129375   -7.0712838 
H     0.1039065   -2.4561544   -9.0424174 
C     2.4535459   -1.3351645   -5.2377715 
C     1.4047210   -0.5863879   -4.3846141 
H     3.4651704   -0.9333970   -4.9999239 
H     2.4651885   -2.4156446   -4.9552565 
C     1.7345703   -0.7564987   -2.9154882 
O     1.3762792   -0.8831098  -10.7543094 
H     0.6214780   -1.4687552  -11.0942913 
O     1.5676190   -2.0173971   -2.3579222 
N     1.2959103    0.8325200   -4.7762019 
H     0.4132355   -1.0783117   -4.5132531 
H     2.2519219    1.2153687   -4.9784073 
H     0.7739510    0.9039628   -5.6800389 
N     1.8690398    0.3613313   -2.0268181 
C     3.1690940    1.0387068   -1.8132844 
H     1.0135555    0.6550066   -1.5039503 
C     3.2347774    2.3666398   -2.5713420 
O     2.5798502    3.4714870   -2.0349912 
O     3.9354814    2.5182148   -3.7772997 
H     4.3622703    1.6705470   -4.1291871 
C     4.3969375    0.1130248   -2.0617436 
H     3.1992722    1.3540116   -0.7466436 
C     4.5807164   -0.9227674   -0.9724403 
H     5.3219544    0.7298277   -2.1033945 
H     4.3313658   -0.3625837   -3.0706173 
C     5.0380431   -0.7015021    0.2720281 
C     5.4389301    0.4556940    0.8596652 
C     5.8727428    0.4103901    2.1520961 
C     5.9037155   -0.7776879    2.8289989 
C     5.5031104   -1.9279307    2.2162704 
C     5.0766062   -1.8564475    0.9379640 
H     5.4222321    1.3997463    0.3227317 
H     6.1969746    1.3239223    2.6457620 
H     6.2513084   -0.8061910    3.8591745 
H     5.5247349   -2.8798665    2.7365256 
N     4.6327927   -2.9288114    0.1203835 
C     4.3341385   -2.2389302   -1.1015154 
H     4.5572386   -3.9486881    0.3424953 
H     3.9573513   -2.7243539   -2.0002145 
