48
Energy =
C    -0.4703753    6.0653118    0.8711902 
C    -0.4482760    4.7642227    1.2678305 
C     0.4804919    6.5398032    0.0173491 
C     1.4489365    5.7095479   -0.4322294 
C     1.4646261    4.4177704   -0.0292965 
C     0.5168512    3.9239834    0.8042507 
H    -1.2048076    4.4054338    1.9604232 
H     2.2027588    6.0861894   -1.1146185 
H     2.2202340    3.5948138   -0.3677787 
H    -1.2466888    6.7256792    1.2422247 
C     0.6066219    2.4752709    1.2943670 
C     1.0773890    1.4199454    0.2351918 
H    -0.3922656    2.1631233    1.6703814 
H     1.2972269    2.4473519    2.1650562 
C     2.5436685    1.5989712   -0.1914687 
O     0.4831567    7.8714184   -0.4104102 
H    -0.2734050    8.4275515   -0.0275680 
O     2.9477085    2.8397482   -0.6964707 
N     0.8248196    0.0654021    0.7559049 
H     0.4908537    1.5659118   -0.7033788 
H     1.2172795   -0.0247881    1.7231204 
H    -0.2079908   -0.0949705    0.8252847 
N     3.4959788    0.5297471   -0.1745947 
C     4.6624346    0.7016679   -1.0591512 
H     3.3784890   -0.2824952    0.4705206 
C     5.0469886    2.1805194   -1.2201891 
O     6.2929096    2.5192231   -1.7385923 
O     4.2587528    3.0798453   -0.9146756 
H     3.7899341    3.0565669    0.0000380 
C     4.3190203    0.0325921   -2.4057522 
H     5.5406958    0.1941851   -0.6045063 
C     5.4926038   -0.0011740   -3.3600914 
H     3.4525898    0.5558322   -2.8673740 
H     3.9819287   -1.0101556   -2.2157776 
C     5.7748572    0.8840925   -4.3302683 
C     5.1128737    2.0094136   -4.7057234 
C     5.6197271    2.7462729   -5.7353156 
C     6.7667180    2.3530974   -6.3675539 
C     7.4163249    1.2218983   -5.9714007 
C     6.8958567    0.5097942   -4.9497720 
H     4.2120911    2.3360762   -4.1938653 
H     5.1135105    3.6565476   -6.0471427 
H     7.1666730    2.9494670   -7.1835199 
H     8.3309814    0.9004041   -6.4574655 
N     7.4173734   -0.6845435   -4.3828472 
C     6.4515170   -0.9437688   -3.3556973 
H     8.2696798   -1.2276509   -4.6508003 
H     6.4951773   -1.7857678   -2.6694455 
