48
Energy =
C    -1.2029646    1.3016533    1.0386863 
C    -1.0134885    1.9411219   -0.1437087 
C    -0.8367036    1.8985001    2.2042639 
C    -0.2792531    3.1306789    2.1782038 
C    -0.0868540    3.7743738    0.9988583 
C    -0.4614680    3.1858917   -0.1691026 
H    -1.2890543    1.4447525   -1.0740068 
H     0.0147891    3.5931554    3.1143334 
H     0.3707898    4.7603769    0.9985302 
H    -1.6418505    0.3095047    1.0498676 
C    -0.2190831    3.8852293   -1.4880418 
C     1.2091988    3.6263441   -2.0230508 
H    -0.3788040    4.9787374   -1.3593412 
H    -0.9671523    3.5481616   -2.2420914 
C     1.4833031    2.1439088   -2.2195028 
O    -1.0173729    1.2667770    3.4383606 
H    -1.4400493    0.3472515    3.3740035 
O     0.6499344    1.4110731   -3.0571499 
N     1.4062491    4.3563647   -3.2851749 
H     1.9534372    3.9927900   -1.2762232 
H     0.7028592    4.0326132   -3.9931607 
H     1.2548884    5.3809338   -3.1308013 
N     2.2637268    1.4307074   -1.2534700 
C     3.6973846    1.2007666   -1.5206974 
H     1.8050677    1.1216628   -0.3672893 
C     4.5286785    2.4836865   -1.4392937 
O     5.3329360    2.6940255   -0.3267880 
O     4.4760009    3.4828298   -2.4123767 
H     3.8538380    3.2401404   -3.1658177 
C     3.8725795    0.4041531   -2.8359153 
H     4.0858391    0.5621405   -0.6938373 
C     5.2584970   -0.1951364   -2.9470661 
H     3.6368836    1.0229740   -3.7262783 
H     3.1275622   -0.4240257   -2.8511734 
C     6.3197116    0.3125333   -3.5963821 
C     6.4327922    1.4449289   -4.3373952 
C     7.6430418    1.7391904   -4.8930775 
C     8.7108480    0.9064993   -4.7043841 
C     8.5747486   -0.2260497   -3.9583841 
C     7.3673480   -0.4954255   -3.4188134 
H     5.5907092    2.1096829   -4.4907154 
H     7.7594060    2.6432075   -5.4857867 
H     9.6727927    1.1499929   -5.1480488 
H     9.4122847   -0.8957906   -3.7962211 
N     7.0198947   -1.6104426   -2.6104426 
C     5.6389078   -1.3357296   -2.3444556 
H     7.6121799   -2.4137160   -2.2988452 
H     4.9963456   -1.9586922   -1.7265948 
