48
Energy =
C     0.8037320   -3.2287511    2.4395686 
C     0.2674266   -2.1162603    1.8772288 
C     1.9306716   -3.7823027    1.9180837 
C     2.5160979   -3.2147482    0.8393403 
C     1.9823248   -2.1039240    0.2716771 
C     0.8477018   -1.5513518    0.7815108 
H    -0.6282683   -1.6801956    2.3114140 
H     3.4223624   -3.6572697    0.4402154 
H     2.4802173   -1.6554700   -0.5807890 
H     0.3311425   -3.6725941    3.3090815 
C     0.2594276   -0.2973448    0.1674026 
C     0.9309972    0.9791316    0.7242417 
H    -0.8331315   -0.2634524    0.3757511 
H     0.3517904   -0.3313021   -0.9403554 
C     2.3121849    1.2057547    0.1263691 
O     2.5066999   -4.9305549    2.4709479 
H     2.0199100   -5.2866955    3.2861698 
O     3.4349416    0.8101277    0.8499911 
N     0.0521899    2.1431608    0.5146302 
H     1.1049235    0.8583237    1.8214166 
H    -0.3237699    2.1601894   -0.4628215 
H    -0.7714094    2.0810381    1.1590361 
N     2.4699239    1.7309298   -1.2038610 
C     3.8371835    1.9835035   -1.6999341 
H     1.6265178    1.9015445   -1.7962495 
C     3.8985743    3.2203714   -2.5897901 
O     2.7814580    3.6107140   -3.3196208 
O     5.0899188    3.9271543   -2.7666426 
H     5.8389544    3.5718824   -2.1907971 
C     4.3646618    0.7239125   -2.4209970 
H     4.5116315    2.2111981   -0.8423070 
C     3.5573984    0.3719762   -3.6556875 
H     4.3394830   -0.1307970   -1.7082497 
H     5.4332444    0.8626577   -2.6932050 
C     3.7640693    0.8044481   -4.9115360 
C     4.7250356    1.6275723   -5.4057886 
C     4.7074945    1.9192855   -6.7380458 
C     3.7429402    1.3885828   -7.5488885 
C     2.7883418    0.5644684   -7.0316820 
C     2.8257766    0.2920745   -5.7104053 
H     5.4866281    2.0609151   -4.7649460 
H     5.4599824    2.5846397   -7.1548681 
H     3.7331421    1.6300182   -8.6088441 
H     2.0130844    0.1392639   -7.6599267 
N     1.9274467   -0.5302528   -4.9793665 
C     2.4697062   -0.4190440   -3.6576647 
H     1.0984810   -1.0697285   -5.3195061 
H     2.0470852   -0.9007776   -2.7825652 
