48
Energy =
C     4.6622073    8.3347158    1.5596285 
C     4.8950286    7.1378412    0.9633610 
C     3.3875570    8.7744131    1.7365828 
C     2.3531343    8.0121012    1.3149751 
C     2.5792619    6.8147457    0.7179147 
C     3.8532456    6.3716613    0.5358464 
H     5.9213921    6.8009798    0.8327048 
H     1.3411330    8.3732723    1.4628212 
H     1.7327742    6.2161086    0.3890015 
H     5.4977992    8.9395184    1.8956227 
C     4.1022322    5.0302262   -0.1152558 
C     3.8905981    3.8564700    0.8750355 
H     5.1276532    4.9963698   -0.5520729 
H     3.4304200    4.9214223   -0.9988302 
C     3.6229630    2.5386716    0.1528614 
O     3.1137414   10.0017199    2.3486881 
H     3.9409258   10.5163330    2.6306633 
O     2.3198892    2.2364845   -0.2325142 
N     5.0295548    3.7549928    1.8040486 
H     2.9619325    4.0375798    1.4672867 
H     5.9274212    3.6436195    1.2724594 
H     5.1015571    4.6255321    2.3816161 
N     4.6567858    1.5538656   -0.0287626 
C     5.1521123    1.4903902   -1.4235406 
H     4.2377134    0.6366915    0.2442065 
C     5.7400256    2.8273218   -1.8608965 
O     4.9964917    3.6945035   -2.6521788 
O     6.9370548    3.3016171   -1.3320866 
H     7.4012002    2.5984426   -0.7742395 
C     4.0626287    0.9643421   -2.3939033 
H     6.0002036    0.7695957   -1.4439214 
C     4.6615927    0.5329228   -3.7149685 
H     3.3008896    1.7565635   -2.5764249 
H     3.5151624    0.1114876   -1.9401629 
C     5.1668847   -0.6745582   -4.0117505 
C     5.2467140   -1.7962287   -3.2502659 
C     5.8244595   -2.9069499   -3.7916471 
C     6.3116990   -2.8792794   -5.0692163 
C     6.2251844   -1.7399336   -5.8130074 
C     5.6464284   -0.6553398   -5.2564287 
H     4.8659666   -1.8189685   -2.2338831 
H     5.8999445   -3.8183968   -3.2037133 
H     6.7728550   -3.7678097   -5.4928144 
H     6.6120904   -1.6987987   -6.8254647 
N     5.4743957    0.6244472   -5.8475912 
C     4.8376194    1.3380163   -4.7778175 
H     5.7358881    0.9564302   -6.8039292 
H     4.5735626    2.3952863   -4.8080668 
