48
 energy: -8.987126184233 gnorm: 0.000596424204 xtb: 6.6.0 (2ccbbd7)
C            2.88307193525305        3.83990488665677       -6.98976904740697
C            2.71640558336591        3.37273148703509       -5.70823995013506
C            1.81983141994004        3.82888515963664       -7.89351985668675
C            0.58973162020141        3.33341348776045       -7.46111307679154
C            0.43090115167314        2.86614507833923       -6.17826726938918
C            1.49043870705380        2.88096197315504       -5.28238433005882
H            3.54296704163272        3.39029541400940       -5.01744549377308
H           -0.22994256304866        3.32553019757564       -8.15722399679110
H           -0.52322108289471        2.48436083151865       -5.85770464570609
H            3.83753445064202        4.21935300587525       -7.30834443963826
C            1.34209310197292        2.32432522868556       -3.90805172701368
C            1.88600442229655        0.91054342803241       -3.75735012003523
H            0.31342967179137        2.38637228109327       -3.55071533866468
H            2.03698805306378        2.99174108397355       -3.12238253138647
C            1.94292699387070        0.54917140693847       -2.29252411055839
O            1.95512390404077        4.29024149181471       -9.18948266894298
H            2.87367460736043        4.60233180405882       -9.34031720945707
O            0.97185837249413       -0.00606412486817       -1.81867164896044
N            1.08954562172018       -0.08128883952038       -4.46607383902878
H            2.89840510962946        0.87484137918938       -4.17980984966365
H            0.29252887190453       -0.31529478347360       -3.88017950852065
H            0.74771010843691        0.29473211897512       -5.34160967575744
N            3.03532596301283        0.88164851771111       -1.51803547167541
C            4.30831133035241        1.46397705511856       -1.99916137753390
H            3.01513686165706        0.62751711680421       -0.53166723157997
C            4.11947312780601        2.81857522970214       -2.61856989749823
O            5.10467276203369        3.43382362662679       -3.33348150409400
O            2.83601896125174        3.49634163894219       -2.45457539003138
H            2.92916390009522        4.49493072653090       -2.67825866009223
C            5.06280985652403        0.46252951051548       -2.90950641025571
H            4.93233480344132        1.62527011379552       -1.10606038203155
C            6.51106404998447        0.32804203258046       -2.57268640323919
H            4.96893624364575        0.76470858788644       -3.95697878108734
H            4.58535990004617       -0.52013635430441       -2.83093887704693
C            7.44370906955090        1.39927588911596       -2.51442469236581
C            7.29842737083762        2.77032055110515       -2.73390601658666
C            8.38546129240078        3.57952658382111       -2.59310817408377
C            9.63700784953384        3.04795291536278       -2.23424191155689
C            9.80350282510578        1.70579739500779       -2.01622539949420
C            8.69370295861097        0.86115925734319       -2.15647484700965
H            6.16333427266482        3.13328771537611       -3.04291663622735
H            8.28054129503588        4.63857820568056       -2.75931182445488
H           10.47958703880267        3.71107627999486       -2.12940316828897
H           10.75702905548275        1.29208327359226       -1.74113595951531
N            8.51952881222231       -0.50470297102653       -2.00694143526386
C            7.20369896934945       -0.81640562233887       -2.26025043436526
H            9.25911271667493       -1.16033465816739       -1.74834813111910
H            6.78479303455733       -1.80854093950579       -2.21468291408830
