48
Energy =
C     4.3346066    1.2792525    5.7726278 
C     3.7555055    0.6658948    4.7094311 
C     5.3922010    2.1141326    5.5880703 
C     5.8628033    2.3303480    4.3387790 
C     5.2881486    1.7195462    3.2718417 
C     4.2314535    0.8801027    3.4519758 
H     2.9080361    0.0052318    4.8735433 
H     6.7051089    3.0004613    4.2046435 
H     5.6796718    1.9091969    2.2746931 
H     3.9490398    1.1014092    6.7707116 
C     3.5820739    0.2126693    2.2606394 
C     2.6705591    1.1847598    1.4756089 
H     2.9961525   -0.6819661    2.5720712 
H     4.3852371   -0.1758301    1.5947309 
C     2.2908288    0.5944206    0.1308263 
O     6.0112786    2.7617335    6.6622012 
H     5.6007396    2.5481540    7.5645148 
O     1.6183522   -0.6196674    0.0538501 
N     1.4666660    1.5171422    2.2541885 
H     3.2306939    2.1252243    1.2551137 
H     0.9476447    0.6400800    2.5013514 
H     1.7372366    1.9924206    3.1469319 
N     2.5708091    1.3058166   -1.0759809 
C     3.9537929    1.2394334   -1.5864789 
H     1.8035647    1.8729394   -1.4991065 
C     4.5464715    2.6199674   -1.8538069 
O     5.8266068    2.8951186   -1.3909050 
O     3.8681999    3.6167062   -2.5542099 
H     2.9772584    3.2966051   -2.8966647 
C     4.0208698    0.2913741   -2.8013958 
H     4.6246585    0.7982081   -0.8121841 
C     3.0846582    0.6797503   -3.9239329 
H     3.7541348   -0.7343974   -2.4584315 
H     5.0660557    0.2249549   -3.1753177 
C     3.3659598    1.4516286   -4.9854616 
C     4.5225031    2.0749274   -5.3283120 
C     4.5413393    2.8258705   -6.4667571 
C     3.4172011    2.9415811   -7.2370070 
C     2.2659794    2.3097206   -6.8707359 
C     2.2727357    1.5728840   -5.7400840 
H     5.4119705    2.0002298   -4.7090559 
H     5.4532150    3.3417479   -6.7577847 
H     3.4396301    3.5450889   -8.1407561 
H     1.3635263    2.3965513   -7.4659037 
N     1.1840129    0.8567843   -5.1750528 
C     1.7949526    0.3085265   -3.9995803 
H     0.2021968    0.7610722   -5.5216294 
H     1.2823984   -0.3119812   -3.2645043 
