48
Energy =
C     0.1890855    4.4394088    1.6628340 
C     0.1074520    3.0949010    1.8253854 
C     1.3977144    5.0335145    1.4774378 
C     2.5172145    4.2764981    1.4495613 
C     2.4425750    2.9310182    1.6197757 
C     1.2352310    2.3320808    1.8148836 
H    -0.8674429    2.6344264    1.9655422 
H     3.4721493    4.7648946    1.2794755 
H     3.3538272    2.3385941    1.5859348 
H    -0.7150213    5.0385580    1.6804727 
C     1.1334400    0.8300825    1.9769372 
C     0.9191889    0.1227166    0.6186322 
H     0.2886132    0.5980656    2.6622270 
H     2.0441748    0.4248897    2.4749090 
C     2.2076392    0.0806376   -0.1910363 
O     1.5157930    6.4172232    1.3159381 
H     0.6310352    6.9122791    1.3234057 
O     3.2396031   -0.7569571    0.2334774 
N     0.3965575   -1.2349161    0.8360782 
H     0.1688847    0.6869893    0.0179821 
H     1.0765696   -1.7877345    1.4129925 
H    -0.5086762   -1.1933353    1.3598267 
N     2.5040654    1.1430373   -1.1160735 
C     3.9231877    1.4357433   -1.3963617 
H     1.7261012    1.7130980   -1.5192456 
C     4.1754449    2.9341790   -1.4864841 
O     4.9838665    3.5388322   -0.5317922 
O     3.6133884    3.7285723   -2.4863580 
H     2.9729201    3.2085033   -3.0658596 
C     4.3393657    0.6797588   -2.6727867 
H     4.5697730    1.0975776   -0.5511310 
C     5.8299804    0.7703127   -2.9044720 
H     3.7903354    1.0694377   -3.5567461 
H     4.0429685   -0.3888849   -2.5761260 
C     6.7751149   -0.0079794   -2.3551817 
C     6.6506972   -1.0598520   -1.5053216 
C     7.7857715   -1.6812668   -1.0742861 
C     9.0133896   -1.2441398   -1.4899550 
C     9.1133406   -0.1807391   -2.3376849 
C     7.9757751    0.4148951   -2.7531577 
H     5.6767281   -1.4014534   -1.1636377 
H     7.7130360   -2.5250908   -0.3921812 
H     9.9133844   -1.7421814   -1.1382455 
H    10.0791203    0.1850481   -2.6692037 
N     7.8589667    1.5435913   -3.6084026 
C     6.4348995    1.7158024   -3.6443590 
H     8.6095047    2.0934062   -4.0861230 
H     5.9209696    2.5308891   -4.1540782 
