48
Energy =
C    -0.5866540    4.0263124   -4.2982856 
C    -0.5905373    3.1647773   -3.2451382 
C    -0.8411301    3.5778023   -5.5405649 
C    -1.1067645    2.2686413   -5.7510384 
C    -1.1038883    1.3976787   -4.7099484 
C    -0.8525926    1.8426450   -3.4465288 
H    -0.3661738    3.5351355   -2.2435640 
H    -1.3226993    1.9302140   -6.7572247 
H    -1.3105734    0.3476003   -4.8946851 
H    -0.3653746    5.0819821   -4.1691282 
C    -0.8454222    0.8721281   -2.2860076 
C     0.5863750    0.3923295   -1.9400864 
H    -1.4897972    0.0000301   -2.5333870 
H    -1.3191600    1.3437245   -1.3933920 
C     1.4076499    1.4580475   -1.2271315 
O    -0.8258244    4.4736943   -6.5988413 
H     0.0782910    4.4758660   -7.0578911 
O     0.7846912    2.3331569   -0.3442840 
N     0.5072776   -0.8290673   -1.1226644 
H     1.1413493    0.1621828   -2.8815678 
H    -0.0397115   -0.6335885   -0.2478003 
H     0.0052052   -1.5831166   -1.6481622 
N     2.8281704    1.3111848   -1.1480080 
C     3.7123763    2.4186847   -1.5728633 
H     3.1993870    0.3900256   -0.8262413 
C     3.0066702    3.7294044   -1.9499452 
O     2.9224026    4.7656892   -1.0262797 
O     2.5016882    3.9297172   -3.2362499 
H     2.5804067    2.9739640   -3.8618687 
C     4.6387144    1.9113078   -2.6985025 
H     4.3523793    2.6901613   -0.7032916 
C     3.8784443    1.2995146   -3.8692593 
H     5.3458219    1.1849510   -2.2520096 
H     5.2520467    2.7548339   -3.0877992 
C     4.2019738    0.1620279   -4.5054922 
C     5.2020561   -0.7244959   -4.2371600 
C     5.3426681   -1.8166072   -5.0389762 
C     4.4996636   -2.0091684   -6.0931510 
C     3.5134056   -1.1077254   -6.3512995 
C     3.3883835   -0.0326046   -5.5420571 
H     5.8872848   -0.5898085   -3.4087975 
H     6.1329464   -2.5365306   -4.8389979 
H     4.6199155   -2.8816375   -6.7308858 
H     2.8412726   -1.2423354   -7.1914297 
N     2.4296505    1.0038240   -5.6919593 
C     2.6649112    1.9172327   -4.5623714 
H     1.7167164    1.0717243   -6.4566031 
H     1.8778199    2.6530919   -4.8366170 
