48
Energy =
C     1.2885692   -4.3925366    0.2245736 
C     0.7762757   -3.1395762    0.3079268 
C     1.4933107   -4.9672155   -0.9902171 
C     1.1802911   -4.2832679   -2.1147198 
C     0.6663111   -3.0299579   -2.0369658 
C     0.4551840   -2.4522687   -0.8231661 
H     0.6200848   -2.6922014    1.2859711 
H     1.3530400   -4.7486021   -3.0785466 
H     0.4248401   -2.4959168   -2.9524603 
H     1.5394352   -4.9315186    1.1312899 
C    -0.1340735   -1.0631833   -0.7207614 
C     0.9504825    0.0154438   -0.4731435 
H    -0.8707973   -1.0607162    0.1122729 
H    -0.7199783   -0.8131558   -1.6346263 
C     1.7335314    0.3952857   -1.7307365 
O     2.0379188   -6.2505304   -1.1100744 
H     2.1895071   -6.7190326   -0.2236845 
O     1.2890222   -0.0097593   -2.9876699 
N     0.3264925    1.2076732    0.1241842 
H     1.7018760   -0.3805567    0.2468028 
H    -0.4397420    1.5564591   -0.5017790 
H    -0.1044456    0.9610364    1.0461600 
N     2.7273895    1.4315158   -1.6477120 
C     3.9993257    1.3639377   -2.4038536 
H     2.5994659    2.1665645   -0.9150648 
C     4.0316257    2.4178938   -3.5079216 
O     5.1673844    3.2060893   -3.6526198 
O     2.9923556    2.5741996   -4.4245962 
H     2.2139949    1.9664688   -4.2107721 
C     4.3444739   -0.0324315   -2.9806367 
H     4.8296934    1.6687280   -1.7356721 
C     4.3058393   -1.2562013   -2.0699318 
H     5.3682970    0.0180570   -3.4141340 
H     3.6601465   -0.2220360   -3.8405475 
C     4.4625277   -1.3902856   -0.7288388 
C     4.6245209   -0.4676259    0.2613023 
C     4.7440102   -0.8982365    1.5494710 
C     4.7103165   -2.2305834    1.8395729 
C     4.5598992   -3.1424978    0.8424633 
C     4.4401528   -2.6952834   -0.4237608 
H     4.6521273    0.5918446    0.0776091 
H     4.8685333   -0.1739442    2.3515076 
H     4.8092556   -2.5639117    2.8697422 
H     4.5361928   -4.2069790    1.0495647 
N     4.2877653   -3.4953244   -1.5816058 
C     4.2072101   -2.4929103   -2.5949536 
H     4.2512508   -4.5388133   -1.6767921 
H     4.1045117   -2.7121690   -3.6559223 
