48
Energy =
C     1.0322594   -0.9443286    3.3456571 
C     1.6083136   -0.4946263    2.2021050 
C     0.7659766   -0.0809234    4.3617209 
C     1.0777302    1.2281347    4.2258932 
C     1.6535246    1.6837544    3.0842882 
C     1.9250727    0.8228791    2.0663342 
H     1.8122414   -1.1952030    1.3960199 
H     0.8597260    1.9059230    5.0443270 
H     1.8974560    2.7394673    2.9952292 
H     0.7838641   -1.9953122    3.4461179 
C     2.5555741    1.3294847    0.7903520 
C     1.5362148    2.0305431   -0.1385733 
H     3.0383614    0.4945167    0.2438217 
H     3.3758190    2.0363035    1.0522557 
C     2.2322723    2.6621855   -1.3294147 
O     0.1729834   -0.5115494    5.5524127 
H    -0.0316998   -1.5043559    5.5777569 
O     2.3650252    4.0440367   -1.3873019 
N     0.4909117    1.0885946   -0.5795710 
H     1.0644397    2.8854840    0.4032922 
H     0.9332788    0.2357623   -1.0002209 
H    -0.0824187    0.7778356    0.2396316 
N     2.7887058    1.8462084   -2.3720816 
C     4.2693287    1.8221699   -2.3225767 
H     2.4632618    2.2631971   -3.2768045 
C     4.9050540    2.9939416   -3.0812693 
O     5.0215313    2.9319823   -4.4652836 
O     5.3823211    4.1247345   -2.4206602 
H     5.0854413    4.1503536   -1.4570040 
C     4.7471345    0.4806906   -2.9112268 
H     4.6369824    1.8682635   -1.2713302 
C     4.2857018   -0.6923023   -2.0763797 
H     5.8565935    0.4690997   -2.9911302 
H     4.3600231    0.3789417   -3.9509572 
C     4.8631903   -1.1604736   -0.9593517 
C     5.9855811   -0.7430605   -0.3201500 
C     6.3415007   -1.3689595    0.8383492 
C     5.5763618   -2.3872994    1.3368255 
C     4.4503646   -2.7861337    0.6796531 
C     4.1221181   -2.1548170   -0.4669635 
H     6.5878448    0.0728326   -0.7100611 
H     7.2371983   -1.0543367    1.3697178 
H     5.8660317   -2.8794114    2.2623741 
H     3.8292928   -3.5875661    1.0652083 
N     2.9773922   -2.3845922   -1.2766513 
C     3.1558693   -1.3876926   -2.2924707 
H     2.2007499   -3.0741469   -1.1522876 
H     2.4563083   -1.2004682   -3.1051082 
