48
Energy =
C     3.0256383   -1.8640987    1.7340569 
C     1.7883327   -1.4356185    1.3786491 
C     3.9555951   -0.9793827    2.1781381 
C     3.6384084    0.3303810    2.2703732 
C     2.4018199    0.7647523    1.9204281 
C     1.4671382   -0.1108903    1.4496479 
H     1.0787891   -2.1688136    1.0142644 
H     4.3891704    1.0295023    2.6232305 
H     2.1774450    1.8256827    2.0015308 
H     3.2693639   -2.9183323    1.6558076 
C     0.0893463    0.4107240    1.0513446 
C    -0.5349534   -0.2072653   -0.2348617 
H     0.1543865    1.5096535    0.8813599 
H    -0.6022896    0.2839843    1.9117451 
C     0.4802915   -0.4052304   -1.3566689 
O     5.2410681   -1.3897376    2.5457274 
H     5.3969252   -2.3872670    2.4504094 
O     0.9266719   -1.6730676   -1.7173439 
N    -1.2856673   -1.4462434    0.0615812 
H    -1.2542516    0.5423850   -0.6413361 
H    -1.1378676   -1.7872115    1.0391982 
H    -2.3131806   -1.2746709   -0.0398288 
N     1.0435772    0.7329883   -2.0216272 
C     2.4737172    0.9954947   -1.7808377 
H     0.4213658    1.3594733   -2.5792228 
C     2.7262998    2.4705273   -1.4983280 
O     3.2749855    2.8426975   -0.2772737 
O     2.4031680    3.4703880   -2.4172378 
H     1.9976328    3.0890847   -3.2581722 
C     3.2873205    0.4623752   -2.9773139 
H     2.8165819    0.4600644   -0.8653821 
C     4.7526112    0.3327049   -2.6243638 
H     3.1499005    1.0987495   -3.8766311 
H     2.8996688   -0.5465417   -3.2535771 
C     5.7161543    1.2515913   -2.7986638 
C     5.6551544    2.4848000   -3.3636851 
C     6.7921259    3.2369978   -3.4028368 
C     7.9597295    2.7523551   -2.8814564 
C     7.9968322    1.5124765   -2.3159432 
C     6.8594252    0.7865057   -2.2913458 
H     4.7289929    2.8778225   -3.7705305 
H     6.7668227    4.2301943   -3.8446811 
H     8.8601405    3.3605971   -2.9118087 
H     8.9121632    1.1162101   -1.8898155 
N     6.6797622   -0.5076656   -1.7337909 
C     5.2859039   -0.7244058   -1.9864034 
H     7.3782503   -1.1356827   -1.2740988 
H     4.7324844   -1.6074115   -1.6712157 
