48
 energy: -9.177257058836 gnorm: 0.000360781381 xtb: 6.6.0 (2ccbbd7)
C           -0.76931377475783        1.51312163754584       -5.26352613624505
C           -1.12850368279419        1.76005216375949       -3.95869516825934
C            0.44851794319438        1.97366272999621       -5.76725732633296
C            1.28352312852567        2.69587176442048       -4.91571825218924
C            0.90831017433695        2.95083364561616       -3.61942293186788
C           -0.29704616994401        2.48462649204763       -3.11673186213494
H           -2.06101309295529        1.38194204613001       -3.57628181637353
H            2.24363039278358        3.01813172518249       -5.28032008575887
H            1.58222617127536        3.46976275463969       -2.95837202658666
H           -1.42093808843865        0.95018874469088       -5.90760733739721
C           -0.64351731127444        2.69649699000586       -1.67312307983992
C            0.15406771355714        1.78660915254010       -0.72836802548396
H           -1.71693263814014        2.54868655188846       -1.52011759850784
H           -0.44184553765613        3.73830763553610       -1.40604528573492
C            1.61655418458128        2.03717054046917       -0.89465796100952
O            0.84410002993622        1.72481638115762       -7.06776093058508
H            0.14828467337380        1.21744147378155       -7.53953732392285
O            2.09859520975709        3.30731566912271       -0.54837716963526
N           -0.22922865828156        1.96902925761568        0.66678747225649
H           -0.04278964233982        0.73655616281091       -0.99404031696598
H            0.08382245821456        2.88134217322445        0.97081038688843
H           -1.23603193337134        1.93973028785087        0.76980881182985
N            2.44616843810164        1.07561593531750       -1.44958763376760
C            3.79019553577360        1.42397394441781       -1.90882987034904
H            2.01939023796970        0.37578267077046       -2.05295731645073
C            3.77101305896582        2.84030526521686       -2.43523371149998
O            4.11653738164344        3.07920688202759       -3.58957349855411
O            3.30653312667588        3.81113471445808       -1.52699163768719
H            3.24911154242203        3.37224739931762       -0.46161426833335
C            4.31745347322428        0.44710449350554       -2.96637182841784
H            4.45545755148722        1.40050903845978       -1.03444436103637
C            4.69339266317835       -0.92107064486737       -2.48466021903431
H            5.19395160012760        0.90103445052716       -3.44255060264851
H            3.57349925668911        0.36096589222705       -3.76397166542927
C            4.34229303641478       -1.61030232030321       -1.27815755157591
C            3.56517131481774       -1.28127997798007       -0.15184244747484
C            3.43666905483812       -2.18701529806063        0.86300466984207
C            4.06143571660638       -3.44174273237060        0.79770683514747
C            4.81677230037829       -3.79585938951454       -0.28568288666788
C            4.96086752460058       -2.87664907228382       -1.33284864979984
H            3.06367248927949       -0.33528558213286       -0.10597786720518
H            2.84069116099173       -1.93858712714082        1.72561635517660
H            3.93946060538137       -4.13612462216830        1.61253281578040
H            5.29757990249092       -4.75554607799555       -0.34895931342382
N            5.64820412008078       -2.95769429322990       -2.52873939218995
C            5.47898644163967       -1.78150881842230       -3.21265770154777
H            6.19170086240348       -3.76669483238018       -2.83530628949863
H            5.90465127994494       -1.56819848303210       -4.17995910602310
