48
 energy: -9.274919152025 gnorm: 0.000741737722 xtb: 6.6.0 (2ccbbd7)
C            6.78410225822633        1.32110560896119        1.41966798719603
C            5.50782762812394        0.98040841425194        1.80138232915806
C            7.57111507080708        0.42656215721566        0.69434060983629
C            7.03609104932544       -0.82333475665523        0.38775354923449
C            5.76191155947007       -1.15829319294076        0.77716100847876
C            4.97347878094045       -0.26041269543182        1.48042874311633
H            4.91004130819147        1.67704981605250        2.36527013187079
H            7.65136266812273       -1.52039092907193       -0.15220724178057
H            5.36798720805085       -2.13005186339751        0.53883346238363
H            7.19205775681711        2.28107715036271        1.68342526382143
C            3.59408614066782       -0.63327842723893        1.92565911890648
C            2.55788172033803       -0.79552273146581        0.80361398525932
H            3.23225991136496        0.12492271086489        2.62893461570067
H            3.65608966250225       -1.56407185380704        2.49944789534025
C            2.26350149916080        0.50653056004702        0.07396966270030
O            8.84935384171730        0.74244516515079        0.27608508673870
H            9.07683843348255        1.65718872633629        0.54814514789804
O            1.60167651226103        1.32618884895938        0.68408572977743
N            2.82910703463654       -1.90347016058769       -0.09877061795927
H            1.59717831189171       -1.05666044352248        1.28357311183602
H            3.54264197572801       -1.69820814427157       -0.78234365992114
H            3.10003369184168       -2.73769673250908        0.40672889773243
N            2.68750063193643        0.74069900896052       -1.24902110041018
C            4.10213634515444        1.00297642522727       -1.58251670739980
H            2.17325262615739        1.48053507108248       -1.72490372982550
C            4.30260320740956        2.50336801917058       -1.66320917085531
O            3.78074618518691        3.07108559752413       -2.59755209870931
O            5.04408994883013        3.10356915716989       -0.70149938770501
H            5.34061554121756        2.45486803335060       -0.02781842218375
C            4.50952926475910        0.38075937408492       -2.91454920885336
H            4.72031849295572        0.58627746479010       -0.78078671220777
C            4.46747038112145       -1.10487055123860       -2.91491874389506
H            5.51601733798999        0.71783378772424       -3.18445594188087
H            3.84759360861184        0.77064679568639       -3.69355076881312
C            3.32582645340982       -1.91907410379935       -3.17301611704731
C            1.99322313880254       -1.61814371789579       -3.50055403430736
C            1.10859196550687       -2.64902683309935       -3.65405962016949
C            1.51260765440975       -3.98404339049454       -3.48877020458722
C            2.80318399745474       -4.29948170090637       -3.16182429998294
C            3.72455491264050       -3.25803423973465       -2.99573574953909
H            1.68604014259467       -0.59272183791487       -3.60522214135780
H            0.08173932538147       -2.43506612243767       -3.90029773587159
H            0.78951367726266       -4.77245794201996       -3.61696573930253
H            3.11823351924062       -5.31831188190542       -3.02484289531410
N            5.06018084422064       -3.24807538606135       -2.63043203308433
C            5.49949530656441       -1.94848029799952       -2.58808976119948
H            5.62193599118867       -4.08350380073429       -2.45748551274466
H            6.50163230148502       -1.64244957104937       -2.33575275928658
