48
Energy =
C     1.8999166    0.1483055    2.1235045 
C     0.7799963    0.5592706    1.4772068 
C     3.0188113    0.9203482    2.1102862 
C     3.0068286    2.1040041    1.4564197 
C     1.8882489    2.5211858    0.8109890 
C     0.7681034    1.7466583    0.8110204 
H    -0.1045739   -0.0721998    1.4911672 
H     3.9067580    2.7104491    1.4506380 
H     1.9010599    3.4733763    0.2841659 
H     1.8996828   -0.8023784    2.6458571 
C    -0.4720017    2.1934021    0.0630088 
C    -0.4968876    1.7395310   -1.4182201 
H    -0.5471550    3.3043216    0.1036855 
H    -1.3818744    1.8171721    0.5799460 
C     0.6827591    2.2859569   -2.2096306 
O     4.1948172    0.5154315    2.7491508 
H     4.1130908   -0.3667050    3.2429180 
O     0.8603935    3.6605027   -2.3092905 
N    -0.6194449    0.2731594   -1.5202296 
H    -1.3909932    2.1984925   -1.9009306 
H     0.2320042   -0.1878524   -1.1202366 
H    -1.4453006   -0.0558754   -0.9665155 
N     1.5643848    1.4158755   -2.9301942 
C     3.0013299    1.5065079   -2.6133650 
H     1.1558735    0.7641763   -3.6376102 
C     3.7197722    2.5122391   -3.5130572 
O     4.5949732    3.4293931   -2.9424266 
O     3.5866593    2.4881823   -4.9030511 
H     2.8930022    1.8158392   -5.1895797 
C     3.6122881    0.0926604   -2.6978893 
H     3.1379773    1.8798680   -1.5734583 
C     5.0139871    0.0563950   -2.1269651 
H     3.6086058   -0.2744890   -3.7471329 
H     2.9748525   -0.6120450   -2.1170974 
C     6.1674443    0.2381748   -2.7914489 
C     6.3888326    0.4600765   -4.1129558 
C     7.6748200    0.6244162   -4.5363823 
C     8.7091914    0.5650624   -3.6439542 
C     8.4634494    0.3423343   -2.3217002 
C     7.1828047    0.1820424   -1.9273942 
H     5.5711100    0.5164885   -4.8242946 
H     7.8768279    0.8109181   -5.5883318 
H     9.7307719    0.7023848   -3.9889287 
H     9.2712984    0.2992140   -1.5993183 
N     6.7141579   -0.0428561   -0.6056519 
C     5.2995901   -0.1080616   -0.8231055 
H     7.2514550   -0.1464264    0.2856413 
H     4.5654803   -0.2520318   -0.0344775 
