48
Energy =
C    -1.8894451    0.8188170    0.1265309 
C    -0.9689521    1.0263322   -0.8483928 
C    -3.1256346    1.3761168    0.0288190 
C    -3.4301829    2.1428929   -1.0426178 
C    -2.5123813    2.3563126   -2.0193005 
C    -1.2767198    1.7908127   -1.9328672 
H     0.0177420    0.5848548   -0.7482320 
H    -4.4176569    2.5876975   -1.1049489 
H    -2.7747643    2.9841542   -2.8669609 
H    -1.6324957    0.2103944    0.9868460 
C    -0.2453437    2.0511241   -3.0105442 
C     0.6364834    3.2740924   -2.6687419 
H    -0.7637030    2.2241713   -3.9797095 
H     0.3865625    1.1511644   -3.1725857 
C     1.5854111    3.0016048   -1.5149744 
O    -4.0996783    1.1779671    1.0126001 
H    -3.7879649    0.6146491    1.7964499 
O     1.3584801    3.6109258   -0.2886865 
N     1.3683739    3.7147361   -3.8645705 
H    -0.0094886    4.1154237   -2.3145029 
H     1.9447512    2.9301934   -4.2529631 
H     0.7015656    4.0118247   -4.6135626 
N     2.6127608    2.0037175   -1.5949919 
C     4.0025257    2.4115523   -1.9122466 
H     2.3140004    1.0081710   -1.6273859 
C     4.1675344    3.8613163   -2.4010993 
O     4.5365554    4.1333130   -3.7102612 
O     4.0360876    4.9395611   -1.5269569 
H     3.6344834    4.6542089   -0.6443299 
C     4.6986947    1.3464092   -2.8126445 
H     4.5632746    2.4016936   -0.9523400 
C     3.9584959    1.0027467   -4.0961681 
H     4.8104394    0.4096922   -2.2237269 
H     5.7345939    1.6740877   -3.0439024 
C     4.2384840    1.4193291   -5.3470732 
C     5.2279538    2.2315536   -5.8030092 
C     5.3012553    2.4833665   -7.1417483 
C     4.4039773    1.9149436   -8.0012646 
C     3.4297275    1.0893923   -7.5272164 
C     3.3728987    0.8628177   -6.1982278 
H     5.9485526    2.6820217   -5.1295527 
H     6.0777443    3.1402256   -7.5258835 
H     4.4705099    2.1177523   -9.0670026 
H     2.7175497    0.6190617   -8.1962431 
N     2.4643617    0.0122744   -5.5178941 
C     2.9254731    0.1414675   -4.1693008 
H     1.6702183   -0.5480487   -5.9042519 
H     2.5322134   -0.4394488   -3.3410395 
