48
Energy =
C    -3.6808720   -3.2692730   -1.8449080 
C    -2.3923406   -3.1749225   -1.4292658 
C    -4.5439603   -2.2393250   -1.6354190 
C    -4.1099769   -1.1201332   -1.0124353 
C    -2.8228551   -1.0207136   -0.5942340 
C    -1.9564033   -2.0506686   -0.7970009 
H    -1.7125122   -4.0037604   -1.6087120 
H    -4.8063978   -0.3039831   -0.8551301 
H    -2.4911917   -0.1116562   -0.0993613 
H    -4.0184734   -4.1697234   -2.3463831 
C    -0.5173296   -1.9326814   -0.3462932 
C     0.3214710   -1.0435352   -1.2941428 
H    -0.0448191   -2.9374133   -0.2595592 
H    -0.5012068   -1.5011038    0.6799173 
C     1.6960068   -0.7767823   -0.7035565 
O    -5.8783583   -2.3048539   -2.0500090 
H    -6.1230539   -3.1729374   -2.5134724 
O     2.5846998   -1.8390912   -0.5514455 
N     0.4442787   -1.6651110   -2.6225412 
H    -0.1807950   -0.0559278   -1.4039810 
H     0.8078025   -2.6432682   -2.5257936 
H    -0.4958555   -1.7149893   -3.0800063 
N     1.9409198    0.4311963    0.0411912 
C     2.5276466    1.5079865   -0.7951719 
H     2.6079113    0.1856564    0.8092311 
C     1.5229209    2.0520189   -1.8111694 
O     1.8260640    2.0630485   -3.1672493 
O     0.2931569    2.5663272   -1.3984872 
H     0.1820881    2.5013735   -0.3963412 
C     3.8802534    1.0921726   -1.4441798 
H     2.7282776    2.3776713   -0.1313052 
C     4.9701501    0.8786530   -0.4160306 
H     4.2189225    1.8859149   -2.1465871 
H     3.7525047    0.1784608   -2.0682603 
C     5.6523726    1.8334280    0.2364722 
C     5.5680820    3.1855319    0.1378983 
C     6.3842910    3.9443610    0.9240309 
C     7.2629966    3.3481331    1.7858589 
C     7.3317449    1.9888364    1.8659691 
C     6.5141102    1.2598397    1.0779502 
H     4.8748123    3.6623470   -0.5491138 
H     6.3373081    5.0293574    0.8636334 
H     7.9108918    3.9602838    2.4087559 
H     8.0241506    1.4999931    2.5433074 
N     6.4279413   -0.1558925    1.0071006 
C     5.4041859   -0.3194353    0.0158142 
H     6.9650944   -0.8842269    1.5322428 
H     5.0353153   -1.2824195   -0.3312150 
