48
Energy =
C     0.1389449    4.8646185    3.9482104 
C     0.2626782    4.0287172    2.8862222 
C     1.1624189    5.6926374    4.2893898 
C     2.3041193    5.6776923    3.5645507 
C     2.4336617    4.8437529    2.5017951 
C     1.4101370    4.0160140    2.1538296 
H    -0.5619219    3.3688832    2.6277241 
H     3.1135519    6.3416618    3.8477929 
H     3.3618448    4.8442201    1.9347520 
H    -0.7797319    4.8676767    4.5248316 
C     1.5547906    3.0696122    0.9832351 
C     1.8568677    1.6229247    1.4410465 
H     2.3526385    3.4250324    0.2917045 
H     0.6115221    3.0836877    0.3918208 
C     1.8404614    0.6541512    0.2695196 
O     1.0678069    6.5649729    5.3786452 
H     0.1811475    6.5172807    5.8684654 
O     0.8464528   -0.3138360    0.2116638 
N     3.1356969    1.5577963    2.1723638 
H     1.0341995    1.2750338    2.1127603 
H     3.8548496    2.1784459    1.7276160 
H     2.9958020    1.9296420    3.1416468 
N     2.5713509    0.9367625   -0.9288967 
C     4.0318330    0.7442315   -0.9038327 
H     2.0464594    1.3001923   -1.7544157 
C     4.7525756    2.0677490   -1.1001986 
O     5.5983920    2.5308084   -0.1010570 
O     4.5824793    2.8460702   -2.2444222 
H     3.9562470    2.4138022   -2.9054727 
C     4.4272917   -0.2918686   -1.9753152 
H     4.3693852    0.3698026    0.0929204 
C     4.0053071   -1.6842161   -1.5616942 
H     5.5273466   -0.2752576   -2.1442241 
H     3.9561434   -0.0369043   -2.9501421 
C     4.6832142   -2.5253967   -0.7647715 
C     5.8920797   -2.3727487   -0.1652179 
C     6.3589533   -3.3867059    0.6188269 
C     5.6174481   -4.5226802    0.7933019 
C     4.4036095   -4.6508696    0.1856747 
C     3.9654894   -3.6357708   -0.5880650 
H     6.4787202   -1.4679188   -0.2940467 
H     7.3233506   -3.2888752    1.1117496 
H     5.9940642   -5.3245963    1.4237175 
H     3.7979349   -5.5408496    0.3204929 
N     2.7309312   -3.5589552   -1.2855099 
C     2.8318186   -2.2578163   -1.8801236 
H     1.9620828   -4.2640870   -1.3610127 
H     2.0427799   -1.7840274   -2.4599715 
