48
Energy =
C    -0.9700941    0.4693624    3.5479936 
C    -0.2589053    1.5011805    3.0275160 
C    -1.6093324   -0.4039787    2.7247178 
C    -1.5284988   -0.2405081    1.3845306 
C    -0.8198236    0.7904267    0.8585924 
C    -0.1860907    1.6734391    1.6786186 
H     0.2542631    2.1864667    3.6967591 
H    -2.0345129   -0.9493253    0.7378534 
H    -0.7576559    0.8964150   -0.2216065 
H    -1.0237683    0.3425950    4.6238075 
C     0.6272835    2.8097656    1.0964777 
C     2.1243384    2.4445082    0.9840690 
H     0.5165851    3.7084320    1.7429447 
H     0.2221178    3.1032057    0.1030167 
C     2.3657565    1.2260343    0.0968096 
O    -2.3541956   -1.4750376    3.2288507 
H    -2.3517054   -1.5409374    4.2407806 
O     2.9087765    0.0784822    0.6640976 
N     2.8900949    3.6154093    0.5202953 
H     2.4986258    2.1491282    1.9943888 
H     2.4513315    4.0336164   -0.3357539 
H     2.8762198    4.3577231    1.2598838 
N     2.2594170    1.3025687   -1.3365654 
C     3.5803497    1.5879153   -1.9525816 
H     1.5568881    2.0413844   -1.5653503 
C     3.4728701    2.5828647   -3.1090178 
O     2.4131283    2.4890571   -4.0031908 
O     4.4385379    3.5676382   -3.3232747 
H     5.2052711    3.5167424   -2.6685158 
C     4.1722938    0.2464289   -2.4307371 
H     4.2772933    2.0550473   -1.2137843 
C     5.6221046    0.3783415   -2.8406493 
H     3.5579328   -0.1657047   -3.2619818 
H     4.1002025   -0.4993495   -1.6064942 
C     6.0989074    0.6430780   -4.0680508 
C     5.4389614    0.8302316   -5.2401848 
C     6.1699575    1.0994114   -6.3595335 
C     7.5336023    1.1761425   -6.2927699 
C     8.1749077    0.9864368   -5.1048670 
C     7.4298673    0.7216195   -4.0111341 
H     4.3552245    0.7813651   -5.2973325 
H     5.6633700    1.2611986   -7.3081742 
H     8.1078822    1.3953461   -7.1894429 
H     9.2554478    1.0496827   -5.0339254 
N     7.8966485    0.5070189   -2.6862457 
C     6.6609314    0.2974412   -1.9907489 
H     8.8764759    0.5049617   -2.3202412 
H     6.5793451    0.1089405   -0.9218491 
