48
Energy =
C     6.9734803   -1.1227099    0.8401047 
C     5.7492753   -0.8691961    1.3685061 
C     7.6874809   -0.1225536    0.2571617 
C     7.1726572    1.1268560    0.2117289 
C     5.9504802    1.3868674    0.7428381 
C     5.2274459    0.3867084    1.3189204 
H     5.1911942   -1.6798687    1.8290305 
H     7.7480160    1.9133049   -0.2660060 
H     5.5496992    2.3977268    0.6835279 
H     7.3781706   -2.1285178    0.8830108 
C     3.8490490    0.6664648    1.8808748 
C     2.7131919    0.5156343    0.8369589 
H     3.8265019    1.7028764    2.2911372 
H     3.6510390    0.0026405    2.7505134 
C     2.8971620    1.4471187   -0.3515817 
O     8.9478590   -0.3536618   -0.3024122 
H     9.2566287   -1.3162876   -0.2289427 
O     2.9523136    2.8174719   -0.1377658 
N     2.5486396   -0.8925532    0.4330857 
H     1.7644761    0.8578396    1.3121382 
H     3.4192715   -1.2279607   -0.0444012 
H     2.4135960   -1.4917268    1.2804053 
N     2.8863899    0.9549684   -1.6962088 
C     4.1821876    0.9131357   -2.4005285 
H     1.9795886    0.6404878   -2.1022282 
C     4.5431769    2.2632758   -3.0001527 
O     5.8092013    2.7859626   -2.7649859 
O     3.6729620    2.9569181   -3.8409100 
H     2.7643381    2.5220322   -3.8703129 
C     4.1667120   -0.1959799   -3.4737382 
H     5.0039327    0.6816615   -1.6870028 
C     4.0921030   -1.5657944   -2.8346360 
H     5.1088145   -0.1469072   -4.0694346 
H     3.3399213   -0.0294032   -4.1955980 
C     3.0212647   -2.3618820   -2.7978634 
C     1.7514969   -2.1477092   -3.2348935 
C     0.8422126   -3.1556060   -3.1080775 
C     1.2160149   -4.3529988   -2.5680402 
C     2.5002420   -4.5446612   -2.1550695 
C     3.3786240   -3.5221650   -2.2800883 
H     1.4530068   -1.2041094   -3.6771014 
H    -0.1811140   -3.0090515   -3.4457662 
H     0.4909373   -5.1583775   -2.4771370 
H     2.8161869   -5.4969027   -1.7421386 
N     4.7679441   -3.5434498   -1.9510629 
C     5.1707790   -2.1271462   -2.2388859 
H     5.0344252   -4.4163927   -1.3671437 
H     5.6951592   -2.6858243   -1.5049671 
