48
Energy =
C     1.9362899    4.4604726    2.5920239 
C     1.5019154    4.2680432    1.3208564 
C     2.1481556    3.3955176    3.4108113 
C     1.9172176    2.1443192    2.9533838 
C     1.4823918    1.9457992    1.6840397 
C     1.2712106    3.0081134    0.8591815 
H     1.3496510    5.1291910    0.6754710 
H     2.0900212    1.3035376    3.6159123 
H     1.3149109    0.9313333    1.3307802 
H     2.1197463    5.4678089    2.9496678 
C     0.8441777    2.7786307   -0.5739200 
C     2.0295994    2.2920819   -1.4399797 
H     0.3978497    3.6984737   -1.0160652 
H     0.0325331    2.0160703   -0.5866304 
C     1.5776355    1.7745408   -2.7922971 
O     2.6072938    3.5575979    4.7218031 
H     2.7378265    4.5253506    4.9963055 
O     0.6161696    2.4678279   -3.5165152 
N     3.0347467    3.3542244   -1.6041316 
H     2.4911082    1.4260130   -0.9282209 
H     2.5769915    4.2262753   -1.9629517 
H     3.4687861    3.5752273   -0.6773263 
N     2.1606807    0.5944086   -3.3637115 
C     3.5735411    0.6663823   -3.7880233 
H     1.6102217   -0.2932351   -3.3589294 
C     3.6812579    0.6585686   -5.3138541 
O     4.4083182   -0.3363208   -5.9608314 
O     3.0963514    1.6611448   -6.0862072 
H     2.5089713    2.2659275   -5.5277305 
C     4.3693422   -0.4960941   -3.1454501 
H     4.0386499    1.6274318   -3.4712457 
C     4.3350237   -0.4561736   -1.6341758 
H     5.4301754   -0.4568703   -3.4801498 
H     3.9645622   -1.4681242   -3.5088728 
C     5.0115291    0.3845055   -0.8346524 
C     5.8959285    1.3642609   -1.1514194 
C     6.4090431    2.1247108   -0.1419804 
C     6.0318703    1.8994772    1.1532586 
C     5.1433479    0.9086814    1.4477899 
C     4.6562997    0.1645876    0.4328738 
H     6.1878287    1.5509748   -2.1807231 
H     7.1184405    2.9169798   -0.3692632 
H     6.4408483    2.5133615    1.9521651 
H     4.8293251    0.7227302    2.4694459 
N     3.6979401   -0.8808417    0.5175653 
C     3.5410669   -1.2231686   -0.8657613 
H     3.2196854   -1.2755928    1.3595661 
H     2.8529020   -1.9790393   -1.2369112 
