48
Energy =
C    -0.6955515   -0.2748320    3.7640106 
C    -0.1135713    0.2737620    2.6675533 
C    -2.0507385   -0.3379210    3.8594969 
C    -2.8145790    0.1485174    2.8550231 
C    -2.2380095    0.6979825    1.7563686 
C    -0.8821136    0.7677937    1.6580935 
H     0.9705549    0.3123755    2.6031485 
H    -3.8939242    0.0909347    2.9414820 
H    -2.8687793    1.0801812    0.9578371 
H    -0.0743529   -0.6642879    4.5631497 
C    -0.2396604    1.3625823    0.4246263 
C    -0.2030714    0.3570796   -0.7483123 
H     0.7892588    1.7187001    0.6530505 
H    -0.8107607    2.2719373    0.1272722 
C     0.1675852    1.0371734   -2.0588452 
O    -2.6820187   -0.8979306    4.9752909 
H    -2.0403158   -1.2359249    5.6838626 
O    -0.7886978    1.1199802   -3.0668030 
N     0.7034996   -0.7670849   -0.4446703 
H    -1.2341924   -0.0392930   -0.9154103 
H     1.5886610   -0.4209684   -0.0056931 
H     0.2461303   -1.3967840    0.2573728 
N     1.5264626    1.4190605   -2.3414623 
C     1.7800466    2.7266852   -2.9833588 
H     2.2973506    0.8132330   -1.9840122 
C     1.1546187    3.8902725   -2.1938760 
O     1.1653021    3.8363105   -0.8054601 
O     0.6836108    5.0638025   -2.7839240 
H     0.8289331    5.0815158   -3.7750261 
C     1.3816875    2.6167684   -4.4858741 
H     2.8712789    2.9247626   -2.9109322 
C     2.2988796    3.3900753   -5.4114690 
H     0.3182271    2.9141442   -4.6299367 
H     1.4206375    1.5502188   -4.8059297 
C     3.5868346    3.1145062   -5.6726682 
C     4.3755073    2.1162884   -5.1978704 
C     5.6656700    2.0454919   -5.6352540 
C     6.1404106    2.9584318   -6.5362903 
C     5.3260285    3.9447706   -7.0084955 
C     4.0550187    3.9954261   -6.5572938 
H     3.9923661    1.3808324   -4.4959071 
H     6.3179030    1.2554224   -5.2710553 
H     7.1684298    2.8934252   -6.8836208 
H     5.6829180    4.6701459   -7.7316565 
N     3.0438114    4.9161728   -6.9385341 
C     1.9343970    4.4445040   -6.1632343 
H     3.0972547    5.7197310   -7.6053962 
H     0.9314457    4.8629208   -6.2131309 
