48
 energy: -9.286769031642 gnorm: 0.000739368981 xtb: 6.6.0 (2ccbbd7)
C            4.55126297509909       -5.47579722998993        1.08385779650268
C            3.87344549632333       -4.71844442340217        0.15814346734842
C            4.41678542261057       -5.21655642366298        2.44839482396422
C            3.57972314290000       -4.17333585036650        2.84360275786922
C            2.90480690366102       -3.42134044412476        1.91200125611530
C            3.03754013902671       -3.68525757995128        0.55617082244760
H            3.98896713138677       -4.92146555426873       -0.89290221135081
H            3.47716142529325       -3.97263250160098        3.89516887276574
H            2.26530783563749       -2.61602156376273        2.23112265358552
H            5.19555419975620       -6.27516648518177        0.76386256060592
C            2.34148902981745       -2.83900734751424       -0.46299074292601
C            3.26491631547422       -1.80929059262506       -1.11783074434364
H            1.50182918272637       -2.31016239169813       -0.00245871195461
H            1.89571796433573       -3.47666721157865       -1.23326158750790
C            2.52880022223439       -1.02317562653463       -2.17861281603806
O            5.08620428664848       -5.95777205624304        3.40338347762412
H            5.62783086827336       -6.65255209730239        2.97042749562399
O            1.31874119638016       -0.91460476950484       -2.12815571337857
N            3.84556367517220       -0.89440251205906       -0.14676961670511
H            4.09557645632988       -2.33891034151227       -1.60915902264682
H            3.12739354598378       -0.28129625763020        0.21388241327614
H            4.23912105018054       -1.40170269978320        0.63436670904648
N            3.25910345809814       -0.35939423702940       -3.15931484274647
C            4.42828043425147        0.45177065635609       -2.80679998352272
H            2.71714154436252        0.12662465773924       -3.86888935454571
C            3.99647188547972        1.73453250531034       -2.11589403456321
O            4.85023751484645        2.57823804958340       -1.94128854953269
O            2.69585349522765        1.86967724473762       -1.74699769554073
H            2.17502600993774        1.04564777092989       -1.92087054318930
C            5.27163213007987        0.75883126926578       -4.04861267962483
H            5.02667843446767       -0.12018745245179       -2.08431852348497
C            4.46734814719682        1.29479649029463       -5.18657299682791
H            5.78386969409135       -0.15054663623430       -4.37911070556635
H            6.05449651936213        1.47821338135040       -3.78669327986547
C            3.91382257370989        2.60466903088868       -5.32017281493436
C            3.94205894246193        3.74994834355487       -4.50524699045768
C            3.29322728682977        4.87681719105365       -4.92545241669735
C            2.60140426890028        4.90247235118668       -6.14670507043407
C            2.54524022259289        3.79738460638986       -6.95098945654456
C            3.20371458812150        2.63285333369012       -6.53625146745054
H            4.42743780212510        3.70922011147261       -3.54651829040144
H            3.29988003475984        5.75585246707886       -4.30236380044012
H            2.09828644323091        5.80618201319215       -6.44848453489587
H            2.00907201415313        3.80429402431593       -7.88295911048016
N            3.30964127975120        1.37818157182257       -7.10844298133860
C            4.06398726592927        0.57892039879888       -6.28680351023157
H            2.86516822552221        1.09865998979136       -7.98484057541287
H            4.28952750364311       -0.45814709946598       -6.47563888403660
