48
Energy =
C    -3.6099689   -1.3035406    1.1543924 
C    -2.3518155   -1.3438505    0.6474549 
C    -4.6716441   -1.0889113    0.3321121 
C    -4.4659189   -0.9156813   -0.9932952 
C    -3.2098593   -0.9549473   -1.5058213 
C    -2.1442919   -1.1727542   -0.6870683 
H    -1.5126025   -1.5147381    1.3169299 
H    -5.3208930   -0.7439947   -1.6379464 
H    -3.0661319   -0.8087753   -2.5730299 
H    -3.7644105   -1.4425781    2.2188988 
C    -0.7396244   -1.2014527   -1.2474217 
C     0.0281782    0.1205823   -0.9923546 
H    -0.7490453   -1.4245011   -2.3376998 
H    -0.1872179   -2.0475143   -0.7787360 
C     1.5039639    0.0178343   -1.3764184 
O    -5.9808905   -1.0401964    0.8221011 
H    -6.0507007   -1.1812253    1.8239252 
O     1.9613249   -1.1559884   -1.9546327 
N    -0.6148875    1.2383182   -1.7025598 
H     0.0172039    0.3319333    0.1009285 
H    -0.7165520    1.0065716   -2.7188701 
H    -1.5724843    1.4053549   -1.3139971 
N     2.3575697    1.1723057   -1.1836893 
C     3.8394474    1.1266326   -1.3884407 
H     2.1931027    1.4432295   -0.1875555 
C     4.3554957    2.5652654   -1.6371502 
O     5.4334214    2.7921456   -2.4870503 
O     3.8546082    3.6740527   -0.9505437 
H     3.0474877    3.4609200   -0.3907974 
C     4.3208398    0.1731557   -2.5345906 
H     4.3427213    0.8829356   -0.4506084 
C     4.5804761   -1.3266302   -2.3147272 
H     5.2836445    0.5324034   -2.9529031 
H     3.5843946    0.2848500   -3.3614943 
C     4.8311015   -2.0912488   -1.2125933 
C     4.8842386   -1.7987534    0.1209689 
C     5.1660800   -2.7945963    1.0087702 
C     5.3918092   -4.0655324    0.5747779 
C     5.3363830   -4.3519413   -0.7511034 
C     5.0552375   -3.3541958   -1.6144918 
H     4.7074937   -0.8267589    0.5282059 
H     5.2092644   -2.5741214    2.0729511 
H     5.6155935   -4.8526054    1.2906077 
H     5.5135958   -5.3588030   -1.1138478 
N     4.9690289   -3.4789528   -3.0209190 
C     4.6645109   -2.1361185   -3.3917436 
H     5.1016508   -4.3237930   -3.6229730 
H     4.5270054   -1.8141952   -4.4218185 
