48
Energy =
C    -1.1390772    3.7101860   -6.1533536 
C    -0.3090666    3.0148121   -5.3359590 
C    -2.1886254    4.4012586   -5.6337156 
C    -2.3988110    4.3932606   -4.2975945 
C    -1.5713238    3.7002310   -3.4746554 
C    -0.5236002    3.0018037   -3.9906113 
H     0.5304973    2.4731060   -5.7659890 
H    -3.2377527    4.9515366   -3.8963039 
H    -1.7543151    3.7100726   -2.4028966 
H    -0.9596041    3.7138450   -7.2231218 
C     0.4118386    2.2459205   -3.0747047 
C     1.4658116    3.1754735   -2.4277753 
H     0.9106148    1.4324375   -3.6407342 
H    -0.1835879    1.7466208   -2.2763545 
C     2.2664433    2.4711396   -1.3421118 
O    -3.0632346    5.1273748   -6.4480915 
H    -2.8355736    5.0878640   -7.4355727 
O     2.0543895    2.8435474   -0.0223745 
N     2.3462361    3.7643344   -3.4462874 
H     0.9402087    4.0003442   -1.8847941 
H     2.7079329    3.0309972   -4.0980644 
H     1.8201662    4.4627231   -4.0209729 
N     3.0467349    1.2857368   -1.5837067 
C     4.4680599    1.4876216   -1.9874928 
H     2.5053482    0.6120756   -2.1559318 
C     4.9440854    2.9462358   -2.1137319 
O     5.4043300    3.4389323   -3.3251746 
O     5.0272898    3.7807070   -0.9998638 
H     4.5707229    3.3741486   -0.1943752 
C     4.9003570    0.5435189   -3.1613081 
H     5.0715996    1.1351495   -1.1223496 
C     4.0371113    0.5789830   -4.4147992 
H     4.8958876   -0.5018818   -2.7799304 
H     5.9596053    0.7467451   -3.4307094 
C     4.2630668    1.2539920   -5.5598526 
C     5.3011965    2.0521985   -5.9212760 
C     5.2903548    2.6160427   -7.1633900 
C     4.2634150    2.3622620   -8.0280406 
C     3.2455857    1.5362335   -7.6585715 
C     3.2746429    0.9985701   -6.4216632 
H     6.1359321    2.2370864   -5.2557505 
H     6.1072209    3.2658671   -7.4683775 
H     4.2654952    2.8102771   -9.0186117 
H     2.4341291    1.3052742   -8.3401209 
N     2.3417288    0.0842695   -5.8710535 
C     2.9234781   -0.1594508   -4.5866464 
H     1.4589691   -0.2919097   -6.2882617 
H     2.5393772   -0.8894056   -3.8775980 
