48
Energy =
C    -0.1749699    4.4250464    1.9125433 
C     0.0603758    4.2043696    0.5944945 
C    -1.2282588    3.8255285    2.5282513 
C    -2.0378140    3.0059542    1.8198811 
C    -1.8041141    2.7782519    0.5026758 
C    -0.7512665    3.3770141   -0.1194116 
H     0.9140994    4.6789494    0.1161912 
H    -2.8740477    2.5322215    2.3224251 
H    -2.4637500    2.1126493   -0.0470829 
H     0.4836993    5.0771960    2.4744894 
C    -0.4811834    3.1178353   -1.5879735 
C     0.5558215    1.9952742   -1.8492607 
H    -0.1336431    4.0587196   -2.0713051 
H    -1.4318732    2.8586370   -2.1048204 
C     1.9658353    2.3789783   -1.4219093 
O    -1.5016938    4.0334324    3.8846528 
H    -0.8426950    4.6457605    4.3530816 
O     2.3181502    2.3774704   -0.0744410 
N     0.1334764    0.7208753   -1.2471023 
H     0.6097586    1.8502265   -2.9526903 
H     0.1869845    0.7960163   -0.2019256 
H    -0.8638241    0.5236535   -1.4940367 
N     2.8408332    3.0151242   -2.3618939 
C     4.2824895    2.7178579   -2.2503058 
H     2.4452035    3.6262511   -3.1136463 
C     5.1342106    3.7040125   -3.0430944 
O     4.6050581    4.3648349   -4.1457364 
O     6.4817414    3.9022916   -2.7367333 
H     6.7735979    3.3798581   -1.9241020 
C     4.5719765    1.2517953   -2.6553976 
H     4.5934602    2.8581346   -1.1896109 
C     3.9965229    0.8794120   -4.0069592 
H     4.1397896    0.5795375   -1.8804830 
H     5.6669331    1.0591674   -2.6486264 
C     4.5480911    1.0850735   -5.2152871 
C     5.7402791    1.6431581   -5.5504162 
C     6.0694129    1.7278888   -6.8712387 
C     5.2169960    1.2508630   -7.8277831 
C     4.0298954    0.6854584   -7.4689319 
C     3.7241776    0.6177993   -6.1561232 
H     6.4228940    2.0224499   -4.7964498 
H     7.0133101    2.1821662   -7.1633654 
H     5.4863971    1.3240363   -8.8784091 
H     3.3437348    0.2990371   -8.2147647 
N     2.5537296    0.0578271   -5.5776842 
C     2.8126711    0.2654220   -4.1834909 
H     1.7301204   -0.3858625   -6.0451659 
H     2.1502449   -0.0530466   -3.3816065 
