48
Energy =
C     4.8756320    0.5887714    5.1659744 
C     4.4520490    0.3759337    3.8944977 
C     3.9727327    0.7894591    6.1626226 
C     2.6505346    0.7735001    5.8794333 
C     2.2209520    0.5611709    4.6096739 
C     3.1209354    0.3636603    3.6070400 
H     5.1860682    0.2117170    3.1099049 
H     1.9406438    0.9318321    6.6839676 
H     1.1533749    0.5496313    4.4060220 
H     5.9380941    0.5965061    5.3838292 
C     2.6524124    0.1317127    2.1857702 
C     2.9056908    1.3573666    1.2695866 
H     1.5712655   -0.1341896    2.1517529 
H     3.1905545   -0.7572194    1.7846141 
C     2.6820126    1.0144509   -0.2036592 
O     4.3755840    1.0133631    7.4832246 
H     5.3811432    1.0054878    7.6146617 
O     2.3101694   -0.2725827   -0.5821716 
N     2.0485899    2.4978191    1.6573825 
H     3.9803704    1.6375571    1.3565372 
H     1.5508869    2.3407167    2.5642028 
H     2.6397239    3.3513784    1.7979519 
N     2.8525056    2.0031408   -1.2324849 
C     4.2754999    2.1739553   -1.6127342 
H     2.4199677    2.8926733   -0.8901092 
C     4.5748916    3.5728541   -2.1577326 
O     3.5463912    4.3876216   -2.6143487 
O     5.8852114    4.0491265   -2.2346374 
H     6.5537974    3.3875958   -1.8691739 
C     4.6592255    1.0857360   -2.6395400 
H     4.9367179    2.0565482   -0.7253401 
C     3.7888719    1.1298581   -3.8802251 
H     4.5494091    0.0852714   -2.1644891 
H     5.7305038    1.1759389   -2.9194121 
C     4.0189749    1.8161434   -5.0121837 
C     5.0630551    2.6153427   -5.3530717 
C     5.0505088    3.2117947   -6.5796819 
C     4.0077130    3.0026352   -7.4390375 
C     2.9696086    2.1973731   -7.0757153 
C     3.0045682    1.6189128   -5.8569454 
H     5.8870239    2.7953559   -4.6698678 
H     5.8700339    3.8645956   -6.8707380 
H     4.0022886    3.4864109   -8.4125444 
H     2.1309008    2.0263149   -7.7418595 
N     2.0253805    0.7624363   -5.2870429 
C     2.6070355    0.4993110   -4.0025055 
H     1.1290361    0.4107840   -5.6949780 
H     2.1390332   -0.0991594   -3.2219836 
