48
Energy =
C     1.0892521   -0.1538633    5.1880351 
C     0.4561528   -0.4301946    4.0198907 
C     1.6709641    1.0596346    5.3797970 
C     1.6118334    1.9902506    4.4014277 
C     0.9778479    1.7204122    3.2327900 
C     0.4043410    0.5019526    3.0263121 
H    -0.0096808   -1.4027525    3.8890462 
H     2.0787322    2.9551874    4.5660283 
H     0.9367653    2.4883152    2.4650712 
H     1.1268303   -0.9051714    5.9696217 
C    -0.3105945    0.1919969    1.7214634 
C     0.5548685   -0.5284281    0.6482486 
H    -0.7240763    1.1304255    1.2883569 
H    -1.1969861   -0.4422899    1.9438952 
C     1.5305046    0.3858783   -0.0847828 
O     2.3293387    1.3769769    6.5720823 
H     2.3400338    0.6239719    7.2513647 
O     2.1597567    1.4404169    0.5643306 
N     1.2334001   -1.7145929    1.1952898 
H    -0.1483352   -0.8757179   -0.1428926 
H     1.9730773   -1.4192946    1.8781695 
H     0.5474574   -2.3223861    1.7002809 
N     1.8835613    0.1150443   -1.4465192 
C     3.2758078   -0.2913229   -1.7104618 
H     1.1640931    0.2004364   -2.2006634 
C     3.7790879    0.3180364   -3.0158139 
O     2.9393917    0.3500971   -4.1244453 
O     5.0882919    0.7797646   -3.1578367 
H     5.6409718    0.6361512   -2.3255092 
C     3.3358485   -1.8308981   -1.7462382 
H     3.9417497    0.0896268   -0.8993820 
C     4.7631268   -2.3357295   -1.7713200 
H     2.7641049   -2.2205447   -2.6168366 
H     2.8379887   -2.2400494   -0.8392651 
C     5.5049624   -2.6188504   -2.8537717 
C     5.1848614   -2.5581759   -4.1721267 
C     6.1398152   -2.8915463   -5.0869315 
C     7.3861560   -3.2762057   -4.6761955 
C     7.6859903   -3.3270970   -3.3473660 
C     6.7243783   -2.9928747   -2.4617554 
H     4.2008091   -2.2404921   -4.5043383 
H     5.9099893   -2.8423422   -6.1484645 
H     8.1428154   -3.5353677   -5.4121018 
H     8.6715938   -3.6227857   -3.0045744 
N     6.8353170   -2.9622733   -1.0468137 
C     5.5264525   -2.5217673   -0.6793084 
H     7.6429633   -3.1937470   -0.4270077 
H     5.2144506   -2.3479729    0.3439779 
