48
Energy =
C     3.1011326    4.9582839    4.1481203 
C     3.1263998    3.7460112    3.5381847 
C     3.4492230    6.0782361    3.4595259 
C     3.8221547    5.9773092    2.1637267 
C     3.8485670    4.7688177    1.5483011 
C     3.4998531    3.6432211    2.2326630 
H     2.8482950    2.8615178    4.1052188 
H     4.1008015    6.8767407    1.6249659 
H     4.1553199    4.7096044    0.5050330 
H     2.8025357    5.0299133    5.1886029 
C     3.5201114    2.2987341    1.5379848 
C     2.2914916    2.1201538    0.6008894 
H     3.5586771    1.4642903    2.2727733 
H     4.4717313    2.2359494    0.9635565 
C     2.4529703    0.9753738   -0.3916645 
O     3.4321377    7.3415983    4.0585013 
H     3.1467092    7.3340542    5.0316450 
O     1.4163993    0.7143462   -1.2813440 
N     1.0525489    1.9344065    1.3883169 
H     2.2020047    3.0208692   -0.0553691 
H     1.2128980    1.9446122    2.4217758 
H     0.3778866    2.7071978    1.1761827 
N     3.7486545    0.4304807   -0.6881436 
C     4.5327893    1.0058719   -1.8025869 
H     4.1349595   -0.3158156   -0.0679712 
C     4.4859172    2.5339289   -1.8470228 
O     5.5194525    3.2526854   -1.2618816 
O     3.3944983    3.2451142   -2.3456626 
H     2.6880845    2.6353513   -2.7311322 
C     4.1230454    0.3393460   -3.1323760 
H     5.6072021    0.7690416   -1.6259522 
C     4.4656690   -1.1328869   -3.1308194 
H     4.6317810    0.8377290   -3.9865690 
H     3.0303677    0.4494246   -3.3026226 
C     5.6585388   -1.6822852   -3.4046120 
C     6.8243599   -1.0924046   -3.7742115 
C     7.9127349   -1.8866038   -3.9872649 
C     7.8211352   -3.2418761   -3.8266722 
C     6.6405242   -3.8110969   -3.4504570 
C     5.5776792   -3.0045308   -3.2477615 
H     6.8993592   -0.0157672   -3.8968706 
H     8.8583016   -1.4392633   -4.2845053 
H     8.6933845   -3.8679420   -3.9970550 
H     6.5515223   -4.8834436   -3.3139992 
N     4.2722974   -3.3892629   -2.8399352 
C     3.6174480   -2.1148767   -2.7796322 
H     3.8911121   -4.3409606   -2.6350104 
H     2.5860873   -1.9635840   -2.4663755 
