48
Energy =
C    -1.3385087   -1.9597926   -1.4656399 
C    -1.2586552   -0.6380064   -1.1667030 
C    -0.5093711   -2.8492884   -0.8573536 
C     0.3860155   -2.4100937    0.0541636 
C     0.4802506   -1.0897076    0.3458563 
C    -0.3360237   -0.1901346   -0.2708955 
H    -1.9388139    0.0558017   -1.6507957 
H     1.0290174   -3.1298188    0.5462078 
H     1.2081353   -0.7648064    1.0818123 
H    -2.0680137   -2.3020697   -2.1913355 
C    -0.2235457    1.2887690    0.0489169 
C     0.4942136    2.1199059   -1.0510197 
H     0.3222555    1.4274480    1.0081476 
H    -1.2401064    1.6984001    0.2353038 
C     1.8119927    1.4968441   -1.5127174 
O    -0.5576542   -4.2176882   -1.1466071 
H    -1.2581176   -4.4626600   -1.8380720 
O     1.9174647    0.9421119   -2.7820135 
N    -0.4142013    2.4020944   -2.1774621 
H     0.7754949    3.0993301   -0.6086902 
H    -0.5246113    1.5498444   -2.7767089 
H    -1.3585500    2.6966223   -1.8390083 
N     2.9146976    1.3559709   -0.5966657 
C     4.2092269    2.0034418   -0.9010131 
H     2.7653220    0.8406436    0.2969310 
C     4.1009097    3.2996183   -1.7110799 
O     4.8876748    3.4931026   -2.8394556 
O     3.3303581    4.3681764   -1.2542633 
H     2.9025224    4.1651823   -0.3650330 
C     5.2184185    0.9720839   -1.4656134 
H     4.6401870    2.3459026    0.0654103 
C     4.7540668    0.2432052   -2.7145279 
H     5.4503978    0.2296758   -0.6738073 
H     6.1810443    1.4857508   -1.6856665 
C     4.1135538   -0.9389351   -2.7700119 
C     3.6863687   -1.7501983   -1.7668744 
C     3.0602083   -2.9164277   -2.0978949 
C     2.8638023   -3.2475858   -3.4088236 
C     3.2988983   -2.4189790   -4.3990118 
C     3.9215472   -1.2744797   -4.0482229 
H     3.8212819   -1.4817213   -0.7248537 
H     2.7054585   -3.5855075   -1.3185300 
H     2.3518493   -4.1731039   -3.6618136 
H     3.1477957   -2.6652835   -5.4445763 
N     4.4551735   -0.2901738   -4.9213488 
C     4.9704967    0.6598495   -3.9775528 
H     4.4907975   -0.2775788   -5.9667529 
H     5.4714557    1.5847561   -4.2552336 
