48
Energy =
C    -1.9775617   -2.3749454   -3.8193201 
C    -1.0784262   -2.4102067   -2.8032929 
C    -1.5897140   -1.9826603   -5.0621259 
C    -0.3034065   -1.6278868   -5.2793996 
C     0.6002197   -1.6647955   -4.2682196 
C     0.2179860   -2.0513565   -3.0196289 
H    -1.4046913   -2.7271505   -1.8165062 
H    -0.0074827   -1.3102592   -6.2729916 
H     1.6274107   -1.3688423   -4.4618685 
H    -3.0073146   -2.6618400   -3.6353695 
C     1.2243639   -2.0942623   -1.8857551 
C     1.3333600   -0.7781357   -1.0714665 
H     2.2249442   -2.3645483   -2.2874815 
H     0.9585056   -2.9222139   -1.1918209 
C     1.9288992    0.3807307   -1.8621916 
O    -2.4901145   -1.9385605   -6.1314683 
H    -3.4372330   -2.2034335   -5.8840786 
O     1.2761059    0.8829044   -2.9829729 
N     0.0434879   -0.4097602   -0.4664292 
H     2.0512719   -0.9758671   -0.2428743 
H    -0.6275913   -0.1138027   -1.2170495 
H    -0.3721167   -1.2337526    0.0268588 
N     3.0409944    1.1140297   -1.3264217 
C     4.3612714    1.0868024   -1.9991339 
H     2.9031517    1.6048737   -0.4137967 
C     4.6960635    2.4436407   -2.6145217 
O     5.9006998    3.0544640   -2.2870579 
O     3.8479941    3.0822560   -3.5183127 
H     2.9875469    2.5672373   -3.6363281 
C     4.4913813   -0.0752540   -3.0181805 
H     5.1310087    0.9233689   -1.2111024 
C     5.9041377   -0.2039636   -3.5473556 
H     3.7817895    0.0640063   -3.8625172 
H     4.2223984   -1.0305439   -2.5190972 
C     6.4087390    0.3538281   -4.6605068 
C     5.8091494    1.1361700   -5.5949042 
C     6.5587458    1.5874085   -6.6408797 
C     7.8811967    1.2535732   -6.7382112 
C     8.4625856    0.4672995   -5.7883589 
C     7.7000423    0.0332923   -4.7627645 
H     4.7622178    1.4125962   -5.5180174 
H     6.1024836    2.2227437   -7.3962328 
H     8.4725601    1.6221525   -7.5724995 
H     9.5116063    0.1984329   -5.8468808 
N     8.1111259   -0.7793054   -3.6721777 
C     6.8894344   -0.8788582   -2.9292238 
H     9.0496198   -1.1952971   -3.4735753 
H     6.7841563   -1.4136346   -1.9884058 
