48
Energy =
C    -1.4674999   -0.5931328   -2.6786004 
C    -0.2833740   -1.2358730   -2.5141832 
C    -2.4546112   -0.7323869   -1.7544821 
C    -2.2485701   -1.5128088   -0.6698152 
C    -1.0653005   -2.1551116   -0.4984291 
C    -0.0732206   -2.0214047   -1.4218285 
H     0.4999799   -1.1031172   -3.2560789 
H    -3.0435930   -1.6137251    0.0605514 
H    -0.9198947   -2.7734686    0.3828071 
H    -1.6197908    0.0367595   -3.5484240 
C     1.2518116   -2.7322332   -1.2276278 
C     2.3560245   -1.8425867   -0.6001476 
H     1.6051128   -3.1269876   -2.2064008 
H     1.1077656   -3.6290523   -0.5856674 
C     2.8576107   -0.7719746   -1.5544703 
O    -3.6872658   -0.0863369   -1.8946073 
H    -3.7530964    0.4944822   -2.7233772 
O     2.1458042    0.4143591   -1.7085279 
N     1.9232442   -1.2724821    0.6862196 
H     3.2416284   -2.4904967   -0.4062308 
H     1.1716399   -0.5599064    0.5181821 
H     1.5126675   -2.0230393    1.2879354 
N     3.8292335   -1.1315007   -2.5488595 
C     4.8007200   -0.0358760   -2.7799787 
H     3.2982309   -1.3378635   -3.4277899 
C     4.3262482    0.9501938   -3.8578140 
O     4.3025446    0.5515689   -5.1901077 
O     3.9038560    2.2401796   -3.5432957 
H     3.7104079    2.3313752   -2.5565576 
C     6.1485952   -0.6818714   -3.1552591 
H     4.9676054    0.5432102   -1.8400739 
C     7.2755439    0.3299257   -3.1849122 
H     6.0580476   -1.2143843   -4.1272755 
H     6.3970421   -1.4599025   -2.3995914 
C     7.8064559    0.9338207   -4.2618467 
C     7.5132935    0.7905750   -5.5804304 
C     8.2082798    1.5379045   -6.4850803 
C     9.1774781    2.4060298   -6.0654007 
C     9.4573192    2.5326626   -4.7375151 
C     8.7555511    1.7833345   -3.8614322 
H     6.7426854    0.1068632   -5.9219802 
H     7.9847760    1.4457259   -7.5454773 
H     9.7239909    3.0005938   -6.7933318 
H    10.2208930    3.2190665   -4.3875746 
N     8.8887327    1.7703838   -2.4472063 
C     7.8916811    0.8056624   -2.0880287 
H     9.5402776    2.3151163   -1.8366903 
H     7.6608103    0.5105046   -1.0669338 
