48
Energy =
C    -0.4991812    3.7132491    3.2160235 
C    -0.2552217    3.4783350    1.9019604 
C    -0.0767205    4.8696231    3.7936260 
C     0.5868502    5.7842375    3.0504728 
C     0.8338861    5.5546129    1.7358404 
C     0.4115412    4.3990705    1.1530390 
H    -0.5996891    2.5495402    1.4540758 
H     0.9174508    6.7028553    3.5230633 
H     1.3705842    6.3023950    1.1574992 
H    -1.0327237    2.9738746    3.8035854 
C     0.6989947    4.1268716   -0.3064347 
C     1.8694572    3.1296820   -0.5031715 
H     0.9130978    5.0722833   -0.8559495 
H    -0.2231976    3.7171970   -0.7792798 
C     2.0190319    2.7065027   -1.9584901 
O    -0.3087485    5.1414659    5.1457740 
H    -0.8203910    4.4124948    5.6309515 
O     1.2414999    3.2951684   -2.9480880 
N     3.1281370    3.7067880   -0.0042282 
H     1.6481471    2.1906962    0.0547053 
H     3.3328402    4.6098099   -0.4970180 
H     3.0571435    3.9096296    1.0199589 
N     2.7723378    1.5390399   -2.3054402 
C     4.2341365    1.5692721   -2.0867984 
H     2.2501027    0.7159854   -2.6797996 
C     4.9054322    2.7888096   -2.7200393 
O     5.8990042    3.4538608   -2.0114912 
O     4.5973605    3.2236288   -4.0079129 
H     3.8129799    2.7127007   -4.3871490 
C     4.8685200    0.2650453   -2.6156696 
H     4.4365987    1.6433273   -0.9952745 
C     4.4400793   -0.9367749   -1.8028474 
H     5.9794669    0.3389111   -2.5795388 
H     4.5957123    0.1226801   -3.6854813 
C     4.8722389   -1.2714829   -0.5769052 
C     5.7890591   -0.6633482    0.2191051 
C     6.0508502   -1.2108180    1.4405190 
C     5.4010164   -2.3450471    1.8428996 
C     4.4854691   -2.9391446    1.0255123 
C     4.2437920   -2.3782812   -0.1780467 
H     6.3087936    0.2357045   -0.1004474 
H     6.7816793   -0.7434497    2.0962630 
H     5.6165561   -2.7759320    2.8174716 
H     3.9624201   -3.8397758    1.3285632 
N     3.3352318   -2.8329069   -1.1713764 
C     3.5238977   -1.8416420   -2.1901471 
H     2.6993300   -3.6631701   -1.1576525 
H     2.9956526   -1.8286985   -3.1408069 
