48
Energy =
C     1.6694481    0.8043416    4.2806687 
C     1.1835209    0.1390918    3.2005102 
C     2.7260368    0.3029872    4.9731415 
C     3.2894621   -0.8615523    4.5810251 
C     2.8096495   -1.5288106    3.5013086 
C     1.7528789   -1.0310683    2.7999858 
H     0.3346602    0.5492545    2.6578163 
H     4.1311655   -1.2515021    5.1429448 
H     3.2795000   -2.4618236    3.2018477 
H     1.2122504    1.7386929    4.5892821 
C     1.2280364   -1.7750587    1.5846230 
C     1.8378859   -1.3218538    0.2297462 
H     0.1200747   -1.6869465    1.5343029 
H     1.4246777   -2.8626813    1.7056482 
C     1.2333178   -0.0306902   -0.3373588 
O     3.2505175    0.9621726    6.0891728 
H     2.7832351    1.8342514    6.3126421 
O     0.2165241    0.6338313    0.3392604 
N     3.3042689   -1.2512231    0.2970887 
H     1.5841455   -2.1217955   -0.4999549 
H     3.5974040   -0.5272057    0.9927858 
H     3.6769071   -2.1773147    0.6083156 
N     1.4044425    0.2911645   -1.7219314 
C     2.7057260    0.8427878   -2.1465855 
H     0.6219268    0.0620180   -2.3716198 
C     2.6460483    2.3503150   -2.3459147 
O     3.7039889    3.1264690   -1.8877193 
O     1.6208169    2.9717874   -3.0597661 
H     0.8837631    2.3250213   -3.2923381 
C     3.1695809    0.1292235   -3.4331196 
H     3.4781063    0.6958879   -1.3568321 
C     3.4821716   -1.3261138   -3.1695720 
H     4.0792528    0.6263070   -3.8398173 
H     2.3870605    0.2166631   -4.2192041 
C     4.6035383   -1.8198970   -2.6212735 
C     5.7248070   -1.1770554   -2.2041051 
C     6.7295509   -1.9180547   -1.6547078 
C     6.5993360   -3.2738644   -1.5300941 
C     5.4629235   -3.8968589   -1.9540238 
C     4.4842822   -3.1425438   -2.4966395 
H     5.8263607   -0.0995503   -2.2957273 
H     7.6374431   -1.4271979   -1.3119450 
H     7.4041555   -3.8572998   -1.0899613 
H     5.3410571   -4.9703298   -1.8588907 
N     3.2241077   -3.5880476   -2.9799379 
C     2.6327306   -2.3443134   -3.3879836 
H     2.8443762   -4.5622354   -3.0232306 
H     1.6221920   -2.2330298   -3.7775422 
