48
Energy =
C    -2.2265153    3.9112205   -0.3606071 
C    -0.8990611    3.6289667   -0.3592272 
C    -2.7094116    4.9299176    0.3992907 
C    -1.8599719    5.6606317    1.1550079 
C    -0.5320591    5.3841374    1.1592077 
C    -0.0409899    4.3641999    0.4006925 
H    -0.5315476    2.8109356   -0.9709399 
H    -2.2581893    6.4710338    1.7554743 
H     0.1329466    5.9854826    1.7723489 
H    -2.9005449    3.3202982   -0.9717196 
C     1.4444628    4.0594484    0.3934651 
C     2.2114221    4.7623634   -0.7565153 
H     1.5954076    2.9587564    0.3227192 
H     1.8963630    4.3546854    1.3663755 
C     1.8138254    4.2355915   -2.1334927 
O    -4.0710571    5.2453643    0.4241322 
H    -4.6393007    4.6643393   -0.1829580 
O     1.1820686    5.0600876   -3.0560826 
N     2.0789423    6.2264133   -0.6647487 
H     3.2925703    4.5204405   -0.6492784 
H     1.1031315    6.5190276   -0.9107636 
H     2.2860568    6.5540338    0.3065208 
N     1.9806395    2.8512695   -2.4759677 
C     3.3290454    2.2491873   -2.3942712 
H     1.1293070    2.3229996   -2.7666711 
C     4.4442129    3.1376838   -2.9539728 
O     5.6637520    3.1700303   -2.2900346 
O     4.2956499    3.8949902   -4.1132731 
H     3.3680248    3.7909882   -4.5009898 
C     3.3200486    0.8413661   -3.0341893 
H     3.5791296    2.1067923   -1.3192611 
C     3.1172714    0.8670612   -4.5361131 
H     2.5182969    0.2294436   -2.5649142 
H     4.2736309    0.3195693   -2.7967541 
C     4.0711264    0.9505501   -5.4788310 
C     5.4213181    1.0264245   -5.3502788 
C     6.1769859    1.1145745   -6.4821382 
C     5.5805231    1.1230229   -7.7124011 
C     4.2237475    1.0457918   -7.8177950 
C     3.4977636    0.9605132   -6.6831830 
H     5.8997133    1.0344042   -4.3752478 
H     7.2588413    1.1874607   -6.4040109 
H     6.1899027    1.1984972   -8.6090435 
H     3.7344416    1.0570175   -8.7854559 
N     2.0844597    0.8811667   -6.5732464 
C     1.9218728    0.8249730   -5.1508596 
H     1.3622639    0.8621951   -7.3284433 
H     0.9615139    0.7546822   -4.6481158 
