48
 energy: -9.284300390556 gnorm: 0.000675679859 xtb: 6.6.0 (2ccbbd7)
C           -1.62978267938031       -2.68314056950529       -3.00951441600373
C           -0.90244212537002       -1.54633286405227       -2.75125553261840
C           -2.12485416800306       -2.93059391068528       -4.28999696363729
C           -1.85892050716386       -1.99702287352026       -5.29116679175455
C           -1.13145375163746       -0.86227235008618       -5.02159430247802
C           -0.64474258128126       -0.61509691942060       -3.74547925227797
H           -0.49881502121071       -1.37588518883581       -1.76884157030416
H           -2.23934423930587       -2.18758801598892       -6.27872072089324
H           -0.93518320428170       -0.15177154727602       -5.80610760855118
H           -1.81874818485685       -3.39598006044775       -2.22697750127085
C            0.15004446915419        0.62424164604209       -3.45890224902807
C            1.64336694618749        0.37522748976416       -3.14558696351899
H           -0.30574119482484        1.15650538231121       -2.61735077459144
H            0.06153872078436        1.29994529941309       -4.31677984014186
C            1.88545381320242        0.17428316906580       -1.66157353973775
O           -2.85830799966728       -4.06335461227694       -4.58680860577448
H           -2.96436178112989       -4.61510084998789       -3.78194745877772
O            1.08963388957922       -0.48580467425626       -1.02506278232831
N            2.18670524825557       -0.75540915428979       -3.88016524685173
H            2.21048594318726        1.26368502390281       -3.45987695811313
H            1.76172939986717       -1.60122102206269       -3.52683105824362
H            1.94933858449307       -0.68221603943619       -4.86084539885803
N            3.00315795120882        0.70862435755449       -1.05171538095163
C            4.15573632008753        1.27736777303885       -1.76813543935316
H            3.18950381708223        0.43594041632000       -0.08827295976542
C            3.71186093520447        2.50438540364706       -2.54610397603441
O            4.03583350561601        2.63804849109906       -3.70633456318110
O            2.93721274675756        3.37269331009606       -1.85032687317987
H            2.76567276810155        3.02680057022571       -0.94368739915342
C            4.84884937694656        0.20963914462403       -2.62521522255984
H            4.87966106046925        1.62444254931787       -1.01589767698006
C            6.24397145839456        0.55498443569344       -3.02106442791253
H            4.25721012985130        0.03180165570424       -3.52641764256017
H            4.85170262438035       -0.73694657712799       -2.07653511460254
C            7.42905944434520       -0.18638909811289       -2.73444612663980
C            7.66582042601391       -1.38219275072325       -2.03438594341624
C            8.95083120910895       -1.83859661504571       -1.93253687834709
C           10.02074327740644       -1.13632410043317       -2.51102034209507
C            9.81463112069338        0.02854717641811       -3.19783362660931
C            8.50605997941186        0.51334285322954       -3.31526774253468
H            6.84545208838044       -1.91787997307158       -1.59112543349764
H            9.14880770510733       -2.75323287754437       -1.39867629984285
H           11.02108325411105       -1.52363482937879       -2.41045412351555
H           10.62762703938069        0.57295894819361       -3.64371679042338
N            7.98873464346666        1.63767595947042       -3.93491996635226
C            6.62969664830184        1.64983226649370       -3.75019023390301
H            8.53862638877867        2.33453068674308       -4.44060434831119
H            5.95592686149312        2.41107444623871       -4.10647981810998
