48
Energy =
C     3.6917777    5.1169813    2.6102478 
C     3.9937515    3.9624155    1.9645831 
C     3.5732831    5.1311392    3.9653764 
C     3.7596840    3.9879133    4.6649279 
C     4.0621050    2.8305002    4.0238139 
C     4.1788010    2.8121663    2.6714719 
H     4.0899726    3.9641337    0.8801466 
H     3.6638315    4.0119565    5.7447811 
H     4.2086924    1.9191128    4.5982719 
H     3.5464515    6.0278004    2.0395471 
C     4.5093523    1.5155523    1.9775646 
C     3.2788328    0.9392584    1.2233898 
H     5.3137865    1.4829861    1.2102593 
H     5.4488870    1.8106517    1.4556092 
C     3.6658065   -0.1553610    0.2405514 
O     3.2617881    6.3034294    4.6620850 
H     3.1408098    7.1156717    4.0668816 
O     4.4116221   -1.2504247    0.6644450 
N     2.2964652    0.4268767    2.1896215 
H     2.8008278    1.7426396    0.6126826 
H     2.7699544   -0.2571844    2.8284543 
H     1.9464001    1.2133581    2.7849818 
N     3.4744785    0.0497451   -1.1636623 
C     4.6434207    0.5280453   -1.9204369 
H     2.5537289   -0.2077031   -1.5839353 
C     4.9409867    1.9874095   -1.5881131 
O     3.9136175    2.9233697   -1.6181568 
O     6.2213257    2.4177943   -1.2411855 
H     6.9103185    1.6865603   -1.3462859 
C     4.3799658    0.3384244   -3.4254246 
H     5.5265542   -0.0915596   -1.6391615 
C     5.6213981    0.6073135   -4.2481172 
H     3.5414835    0.9925336   -3.7521534 
H     4.0531846   -0.7098710   -3.6056985 
C     5.9939941    1.7740609   -4.8003336 
C     5.3698424    2.9803827   -4.7997681 
C     5.9756983    4.0242733   -5.4347723 
C     7.1821397    3.8501570   -6.0544758 
C     7.7915076    2.6308056   -6.0407470 
C     7.1721994    1.6134307   -5.4059883 
H     4.4170788    3.1279899   -4.2997805 
H     5.4989050    5.0017312   -5.4407360 
H     7.6601121    4.6888879   -6.5545647 
H     8.7514704    2.4771229   -6.5218300 
N     7.6400707    0.2797025   -5.2634333 
C     6.5802847   -0.3025459   -4.4950195 
H     8.5193375   -0.1581899   -5.6224089 
H     6.5693767   -1.3331149   -4.1477182 
