48
Energy =
C    -4.3843240    1.2383992   -0.3228777 
C    -3.3517797    1.4104799   -1.1862368 
C    -4.4209661    0.1492527    0.4905759 
C    -3.4220593   -0.7607878    0.4341577 
C    -2.3866001   -0.5935643   -0.4269686 
C    -2.3470825    0.4930531   -1.2454373 
H    -3.3345828    2.2890019   -1.8259578 
H    -3.4625308   -1.6245218    1.0883803 
H    -1.5923626   -1.3346120   -0.4569682 
H    -5.1793056    1.9750536   -0.2842143 
C    -1.1843669    0.6872320   -2.1933376 
C     0.0816895    1.2233756   -1.4787529 
H    -1.4583605    1.3714304   -3.0277464 
H    -0.9537646   -0.2894684   -2.6755514 
C     1.2994566    1.2295546   -2.3959095 
O    -5.4700459   -0.0576957    1.3925733 
H    -6.1788987    0.6672011    1.3711048 
O     1.1952917    0.7350127   -3.6904972 
N    -0.1595253    2.5703786   -0.9355001 
H     0.3430212    0.5364457   -0.6426612 
H    -0.4860438    3.2086963   -1.7003573 
H    -0.9096238    2.5338990   -0.2065715 
N     2.5715998    1.6620449   -1.8824951 
C     3.8408528    1.2903670   -2.5426080 
H     2.5812960    2.1667132   -0.9671518 
C     4.1591139    2.1303767   -3.7750732 
O     3.2819113    3.1151308   -4.2096286 
O     5.3403287    1.9363976   -4.4948652 
H     5.9570632    1.2744826   -4.0496621 
C     4.0059786   -0.2546597   -2.6808522 
H     4.6408996    1.5986488   -1.8331869 
C     3.5825559   -0.9815663   -3.9627182 
H     3.4652925   -0.7197750   -1.8278634 
H     5.0804460   -0.4955956   -2.5245723 
C     3.5847996   -2.3226461   -4.0891027 
C     3.8993891   -3.2777523   -3.1730576 
C     3.8296342   -4.5872092   -3.5478750 
C     3.4542048   -4.9221213   -4.8186076 
C     3.1476867   -3.9497518   -5.7225710 
C     3.2223140   -2.6619272   -5.3268987 
H     4.2019066   -3.0188622   -2.1628181 
H     4.0749179   -5.3695663   -2.8330689 
H     3.4016338   -5.9683917   -5.1110314 
H     2.8517350   -4.1983377   -6.7367342 
N     2.9618435   -1.5127473   -6.1115687 
C     3.2205958   -0.4664490   -5.1625559 
H     2.6676097   -1.4385995   -7.1133810 
H     3.0692631    0.5837741   -5.3965338 
