48
Energy =
C    -0.1458779    4.5771793    2.2681079 
C    -0.0526011    3.3276209    1.7465856 
C     0.8431289    5.0605580    3.0662647 
C     1.9199687    4.2886151    3.3369531 
C     2.0172082    3.0379406    2.8200177 
C     1.0309265    2.5486075    2.0191504 
H    -0.8510270    2.9546253    1.1103882 
H     2.7052546    4.6848804    3.9712408 
H     2.8932284    2.4362150    3.0484203 
H    -1.0128345    5.1891788    2.0457685 
C     1.1325269    1.1576762    1.4272799 
C     1.5165974    1.1866602   -0.0708268 
H     0.1512081    0.6529080    1.5600979 
H     1.8683375    0.5354929    1.9857467 
C     2.9796440    1.5648261   -0.3019416 
O     0.7766235    6.3433978    3.6204527 
H    -0.0559518    6.8625361    3.3651021 
O     3.8643821    1.7262113    0.7610920 
N     1.2197864   -0.1289651   -0.6586313 
H     0.9045322    1.9641323   -0.5851271 
H     0.1971250   -0.3311586   -0.5579983 
H     1.3834976   -0.0725345   -1.6900075 
N     3.4361374    1.8898914   -1.6222611 
C     4.7041490    1.2737284   -2.0603039 
H     2.8502326    2.4907502   -2.2452002 
C     5.5875872    2.2687800   -2.8044110 
O     6.3153216    1.8592536   -3.9155154 
O     5.7437468    3.5798222   -2.3593683 
H     5.2412315    3.7436079   -1.4970371 
C     4.4090401   -0.0255192   -2.8538160 
H     5.3302450    1.0005135   -1.1772372 
C     3.3688015    0.1145985   -3.9581562 
H     4.0682689   -0.7754328   -2.1106397 
H     5.3477394   -0.4253250   -3.2993399 
C     2.4108796   -0.7805563   -4.2688052 
C     2.1017829   -1.9713885   -3.6874861 
C     1.0710521   -2.6997053   -4.2041373 
C     0.3744645   -2.2399600   -5.2861350 
C     0.7054278   -1.0493900   -5.8596679 
C     1.7257407   -0.3443352   -5.3281663 
H     2.6498634   -2.3511874   -2.8316683 
H     0.8046174   -3.6538302   -3.7551578 
H    -0.4429687   -2.8288228   -5.6950829 
H     0.1688900   -0.6741974   -6.7247550 
N     2.2349536    0.8963366   -5.7880261 
C     3.3064377    1.1151648   -4.8609746 
H     1.9130155    1.4936068   -6.5845091 
H     3.9880034    1.9603719   -4.9192092 
