48
Energy =
C     3.3596836    6.6472504   -0.7017303 
C     2.8355631    5.4346465   -0.4347028 
C     3.7885474    6.9843336   -1.9400877 
C     3.7026401    6.1268387   -2.9725564 
C     3.1979808    4.8872750   -2.8363249 
C     2.7207061    4.3373639   -1.4852440 
H     2.5159151    5.2119932    0.5792112 
H     4.0432031    6.4601973   -3.9466563 
H     3.1049816    4.2753057   -3.7268120 
H     3.4357546    7.3714386    0.1027047 
C     1.2227843    3.9246284   -1.5966133 
C     0.9624260    2.5646615   -2.3197558 
H     0.6679559    4.7378178   -2.1138428 
H     0.7729295    3.8508278   -0.5810915 
C     1.3531068    1.3536185   -1.4565792 
O     4.3233132    8.2540947   -2.1909696 
H     4.3851546    8.8545671   -1.3756253 
O     0.9459416    1.3179421   -0.1259075 
N    -0.4539453    2.4701525   -2.7073111 
H     1.5775887    2.5218255   -3.2448340 
H    -1.0502613    2.4854958   -1.8435842 
H    -0.7260501    3.2889465   -3.2995864 
N     2.4002093    0.4466171   -1.8686172 
C     3.7283394    0.8874765   -1.3737851 
H     2.3912230    0.3901478   -2.9115285 
C     3.9784106    2.3632686   -1.7029426 
O     4.6660489    2.6791808   -2.8707861 
O     3.4427576    3.2379115   -1.0073856 
H     3.1508043    2.9393927   -0.1317470 
C     4.8279499   -0.0290966   -1.9542526 
H     3.7484821    0.7808797   -0.2639277 
C     4.7001583   -1.4443403   -1.4376346 
H     5.8339780    0.3698928   -1.6979625 
H     4.7744445   -0.0265932   -3.0656386 
C     5.1472120   -1.9148029   -0.2629149 
C     5.8283022   -1.2811657    0.7262860 
C     6.1657516   -1.9937436    1.8395557 
C     5.8195034   -3.3126128    1.9467704 
C     5.1328698   -3.9266932    0.9414759 
C     4.8123972   -3.2009950   -0.1503201 
H     6.0985506   -0.2330166    0.6445354 
H     6.7097609   -1.5100439    2.6471095 
H     6.0889479   -3.8733241    2.8382152 
H     4.8456165   -4.9702161    1.0122538 
N     4.0963139   -3.6417604   -1.2952328 
C     4.0595574   -2.4391896   -2.0754668 
H     3.7088631   -4.5881614   -1.5125347 
H     3.5562543   -2.3431864   -3.0344031 
