48
Energy =
C     1.8322271   -1.5290612   -7.2744386 
C     2.0803608   -1.7170655   -5.9535551 
C     0.5703900   -1.6693993   -7.7595908 
C    -0.4348783   -1.9999205   -6.9195141 
C    -0.1929559   -2.1877924   -5.5983951 
C     1.0681846   -2.0402225   -5.1013892 
H     3.0978935   -1.6129227   -5.5897622 
H    -1.4360824   -2.1127967   -7.3196435 
H    -1.0158073   -2.4572467   -4.9431580 
H     2.6478374   -1.2680310   -7.9404586 
C     1.3365219   -2.2478403   -3.6204380 
C     1.1810311   -0.9696950   -2.7479713 
H     2.3556202   -2.6698591   -3.4836036 
H     0.6474244   -3.0286891   -3.2312278 
C     2.3573371    0.0101926   -2.8398873 
O     0.2795767   -1.4841566   -9.1146299 
H     1.0850166   -1.2258625   -9.6748856 
O     3.5055778   -0.3145656   -3.5554347 
N    -0.1041088   -0.2985178   -3.0054796 
H     1.1727982   -1.3039616   -1.6889622 
H    -0.1005931    0.1193836   -3.9667963 
H    -0.8871386   -0.9901641   -2.9509397 
N     2.3118943    1.2845821   -2.1683558 
C     3.2366976    1.4997521   -1.0184471 
H     1.3257306    1.4900928   -1.8862413 
C     4.0380340    2.7748349   -1.2391448 
O     4.1604915    3.6835726   -0.1945304 
O     4.7248863    3.0190827   -2.4279534 
H     4.5256878    2.3051868   -3.1179100 
C     4.2125685    0.3292459   -0.6890994 
H     2.6317020    1.7120626   -0.1087651 
C     3.5271378   -0.9140549   -0.1546371 
H     4.9261541    0.6642674    0.0970493 
H     4.8405851    0.1102453   -1.5784466 
C     3.7056932   -2.1819242   -0.5702033 
C     4.4865349   -2.6782059   -1.5665257 
C     4.4786685   -4.0233723   -1.7897110 
C     3.7043389   -4.8469038   -1.0218147 
C     2.9337857   -4.3304336   -0.0239929 
C     2.9565393   -2.9964144    0.1769462 
H     5.0986077   -2.0349474   -2.1909566 
H     5.0899178   -4.4415175   -2.5863424 
H     3.7047935   -5.9183299   -1.2066068 
H     2.3171723   -4.9710825    0.5975001 
N     2.2380607   -2.2690099    1.1615711 
C     2.6749393   -0.9318735    0.8881370 
H     1.5692053   -2.6186952    1.8862732 
H     2.3763403   -0.0616894    1.4685371 
