48
 energy: -9.100462330181 gnorm: 0.000960244710 xtb: 6.6.0 (2ccbbd7)
C            2.77253819059312        0.94801547015034       -7.61445998086499
C            2.90242287509225        0.69905314553573       -6.26979978058080
C            1.93980101378189        0.15462639096646       -8.40423040681832
C            1.24269346308588       -0.88608009583947       -7.79049954746417
C            1.37774892509175       -1.12738787655970       -6.44412480520589
C            2.21679318815078       -0.34434528922213       -5.66546366997065
H            3.52284906262975        1.33337861451939       -5.65964614953377
H            0.59663607069855       -1.49392435406719       -8.39864461752080
H            0.83081878890893       -1.93093895510577       -5.98175066522331
H            3.30833233534589        1.76223566583302       -8.06903676226685
C            2.36030226965816       -0.59475297622148       -4.20201062688185
C            1.45033318109037        0.25535424369874       -3.30941617966447
H            3.49123877130253       -0.37054657468526       -3.85529550058106
H            2.22651508362731       -1.65903753133539       -3.98208602753002
C            1.86846043827334        0.19057071565853       -1.84397904400781
O            1.78925842367670        0.37298427191119       -9.76011078876295
H            2.33419371229092        1.13974293659879      -10.03993658925467
O            1.26468311517186       -0.61639809456945       -1.16060818128970
N            1.28099005654859        1.62285290701072       -3.77506849746985
H            0.43985703850976       -0.18753042561543       -3.33852407128493
H            2.20171134020520        2.04172009241978       -3.84658241273019
H            0.87467559341274        1.64592657338323       -4.70139434296446
N            2.85667154453845        0.98098561939197       -1.25168504518121
C            4.15548166649939        1.38642843121538       -1.85111433628531
H            2.96556501373293        0.83640781920119       -0.24969410538172
C            3.97005036857657        2.53845052604548       -2.81967634580829
O            4.10350026894491        2.35316727589897       -4.01026553792202
O            3.61765496327144        3.72571299200199       -2.26742045663321
H            3.48765319304118        3.63719030841528       -1.29886710144447
C            4.88703860368139        0.18518335271979       -2.44384854872442
H            4.78865956828728        1.77673489695212       -1.03920215008895
C            6.28693383919875        0.43286314442826       -2.88555099035054
H            4.20098014415805       -0.17052653281286       -3.36507902248150
H            4.86538723573709       -0.64387056047534       -1.73049503336458
C            7.45051783857701       -0.28688302913089       -2.47883387077840
C            7.65353298810160       -1.35496295534074       -1.58766665839694
C            8.92372035750225       -1.83036009759901       -1.41279315194218
C           10.01158815594284       -1.27164943186001       -2.10301704170451
C            9.83839940443457       -0.23278924622830       -2.97575409389603
C            8.54551186170880        0.26923290686779       -3.17062245011917
H            6.81978085049701       -1.78134550996034       -1.05929328099864
H            9.09560066491933       -2.64870073237045       -0.73333064739454
H           10.99930965676549       -1.67021726313849       -1.94078356733089
H           10.66529498081480        0.20094537299008       -3.50888214951947
N            8.06028634625229        1.28761642251470       -3.97234680589929
C            6.70322117110364        1.37343123471953       -3.79258596204330
H            8.62976861935136        1.87113839534186       -4.58775145834494
H            6.05244967133844        2.08004512443471       -4.27893842102502
