48
Energy =
C     1.2599881    5.2253936   -6.7908336 
C     1.2501439    4.0996669   -6.0335751 
C     0.5516056    6.3183373   -6.4001153 
C    -0.1612132    6.2771712   -5.2515082 
C    -0.1741335    5.1541906   -4.4894856 
C     0.5304059    4.0563468   -4.8781798 
H     1.8254931    3.2365605   -6.3579806 
H    -0.7204898    7.1562425   -4.9502612 
H    -0.7527604    5.1411547   -3.5690466 
H     1.8367683    5.2491574   -7.7089114 
C     0.5254428    2.8101327   -4.0213689 
C     1.4528874    2.9449135   -2.7845127 
H     0.8197177    1.9181543   -4.6177805 
H    -0.5212600    2.6193480   -3.6873954 
C     1.1628388    1.8511755   -1.7854801 
O     0.5389102    7.4936189   -7.1583826 
H     1.1034971    7.4473480   -7.9995255 
O    -0.0280195    1.8813726   -1.0709124 
N     2.8766456    2.9342403   -3.1825877 
H     1.2326150    3.8906839   -2.2356867 
H     3.0674498    2.0641292   -3.7348022 
H     3.0178586    3.6925633   -3.8933492 
N     1.8927993    0.6249964   -1.8507883 
C     3.3039939    0.6286521   -1.4100962 
H     1.4292053   -0.1958967   -2.2969643 
C     3.9637190    2.0288925   -1.2987153 
O     3.7161333    3.1168623   -2.1852350 
O     4.9151357    2.2553023   -0.2990722 
H     5.0584102    1.4563020    0.2978504 
C     4.1447185   -0.3015866   -2.3165502 
H     3.3101332    0.2098067   -0.3808311 
C     3.7662845   -1.7569809   -2.1496912 
H     5.2275805   -0.1886568   -2.0843181 
H     4.0244038   -0.0030986   -3.3799324 
C     4.1036441   -2.5638149   -1.1312867 
C     4.8625224   -2.3102420   -0.0342083 
C     5.0559813   -3.3165091    0.8663314 
C     4.4954977   -4.5467124    0.6583355 
C     3.7389008   -4.7783447   -0.4521048 
C     3.5623544   -3.7668686   -1.3279021 
H     5.3103155   -1.3352032    0.1300676 
H     5.6590918   -3.1401657    1.7540349 
H     4.6536102   -5.3437830    1.3807187 
H     3.2874165   -5.7480441   -0.6325446 
N     2.8169727   -3.7969747   -2.5368632 
C     3.0004465   -2.4551955   -3.0066028 
H     2.2813871   -4.5867199   -2.9650514 
H     2.5713825   -2.0621868   -3.9254764 
