48
 energy: -9.069912350321 gnorm: 0.000612163501 xtb: 6.6.0 (2ccbbd7)
C            3.11047436852411        3.75589329283676        1.93895794344352
C            2.72535752729132        2.44323803016400        1.80258645162641
C            2.16248005402156        4.75171030613588        2.17681608622064
C            0.82149879853189        4.37940569970826        2.26809204566495
C            0.44367357034855        3.06629703611358        2.11921859865337
C            1.38923228870232        2.07760949111919        1.88965527564529
H            3.46079955354826        1.68398794166650        1.59744702125300
H            0.09078861748135        5.14810123121992        2.44610513255812
H           -0.59703910190717        2.79555267343128        2.16980659734626
H            4.14688669522016        4.02925859557131        1.85343313733435
C            0.96839179326560        0.66198640985940        1.63716020182584
C            0.69281619824142        0.39008138072456        0.15491050087559
H            0.08171507741096        0.42726553347548        2.23407456150335
H            1.75196200999564       -0.02009294671187        1.97990923369838
C            1.94754377647934        0.61600206088183       -0.65279961779585
O            2.51277599501929        6.08101849768404        2.31928711496432
H            3.47180112414834        6.19586930896290        2.14644341419105
O            2.73640497296923       -0.29978241290835       -0.75295812936846
N            0.22806134120451       -0.96766528267029       -0.08881214705946
H           -0.08312598878754        1.08367488538665       -0.20310149697279
H            1.04340404868799       -1.57399535547407       -0.09141671282714
H           -0.40284097395561       -1.27707210873478        0.64090074812367
N            2.15335644751903        1.86673777051177       -1.19468898016634
C            3.47167725186313        2.24131076569040       -1.69612500661364
H            1.60354187247018        2.65840701164099       -0.85658130855464
C            3.46141364334845        3.67747321565964       -2.12664554148676
O            4.55830565888172        4.44954421525285       -1.87576981189972
O            2.33908035989027        4.13857904267600       -2.77386291495265
H            1.69967021902586        3.39853894129706       -2.90160887729107
C            3.93654450651705        1.30412448665645       -2.82527918790150
H            4.16409037391918        2.13611261142990       -0.84837673987814
C            5.40493006825972        1.01500506979748       -2.83966215181762
H            3.62545072763859        1.71050268473958       -3.79262309282372
H            3.40394653703520        0.35264645510632       -2.71355659463360
C            6.48968194283175        1.89011145529887       -2.52485248045432
C            6.56211877310831        3.22385884222217       -2.10240278057278
C            7.78060276930411        3.78800663706190       -1.87077227237886
C            8.96377849758025        3.05215461060147       -2.04623270574322
C            8.92729208816646        1.74757788104981       -2.45590046693456
C            7.68093016227893        1.15573162666449       -2.69912338887967
H            5.52418934926515        3.86590566003400       -1.96647852491314
H            7.83443432976730        4.81514797971083       -1.55053461193435
H            9.91287758068033        3.52488837652026       -1.85532874774461
H            9.82600779511573        1.17369829008892       -2.59390143367711
N            7.32930696512764       -0.11595598643131       -3.11141890697037
C            5.96138926358576       -0.19003909389076       -3.19302811345784
H            7.99142310692783       -0.86834175199479       -3.30990719550052
H            5.41049182524987       -1.06942263001680       -3.48559429962861
