48
 energy: -9.081442814192 gnorm: 0.000593981217 xtb: 6.6.0 (2ccbbd7)
C           -3.81304244650931       -0.08068915915286       -1.22148839463859
C           -2.54928476628716        0.27092125224594       -1.63392584686051
C           -4.00121094583764       -0.79503314861145       -0.03778104434248
C           -2.87644984028111       -1.13618018025690        0.71317292740208
C           -1.61638931692682       -0.78043954873675        0.29468392950718
C           -1.43276209868768       -0.07695765241738       -0.88646989268952
H           -2.41695075483063        0.82472315366221       -2.54756953646063
H           -3.02092008646360       -1.68199562776088        1.62832910441363
H           -0.75659423490151       -1.04497637492464        0.88608119089267
H           -4.67102845121665        0.19174212898923       -1.80982394411991
C           -0.06048176580587        0.33919091639277       -1.31561656185696
C            0.48650709788536        1.52448326222063       -0.51000242052216
H           -0.07077195729203        0.60700417226160       -2.37621242009522
H            0.62150950544826       -0.51319195896742       -1.23030800423460
C            1.88748126041527        1.85691422755912       -0.90270699270834
O           -5.25800097148474       -1.16669793180530        0.40193098715395
H           -5.94068443661215       -0.85419004591016       -0.23079787493433
O            2.42241195437724        3.08267778068277       -0.63246527599399
N           -0.36549017869946        2.70247927634176       -0.63264912423131
H            0.49989222574941        1.25209818806318        0.55702445667882
H           -0.19997534049377        3.15083158796811       -1.52490652038615
H           -1.34484072750366        2.44932562435906       -0.57925188953192
N            2.71579248833969        0.92379392607688       -1.57488361252084
C            4.15943618799097        1.17974512626155       -1.58879225873540
H            2.42935975575823        0.71089306405758       -2.52548752913979
C            4.43372904261633        2.63503243288370       -1.85446178237501
O            3.43841375085383        3.51397683764265       -1.64112513897820
O            5.68612441501639        3.01760360558659       -2.31526945532046
H            6.39197837254618        2.47144260045771       -1.90279235243525
C            4.85267269036526        0.26292327114974       -2.62141601131857
H            4.53073398684184        0.95780486376941       -0.57764089784367
C            4.11122923955130        0.17122085517446       -3.91664221396040
H            4.94314228770983       -0.74686511411572       -2.20688594459460
H            5.87493605207438        0.60158063474580       -2.81091604401079
C            3.86910988618959        1.21512041897008       -4.86290563167488
C            4.28994443058157        2.55370136370049       -4.95392350500396
C            3.85637528237507        3.31574797839740       -6.00226414123066
C            3.00107301424572        2.78434391347807       -6.98058085078109
C            2.56771333966940        1.48870770726176       -6.91112505272677
C            3.00029382166312        0.69373294142248       -5.84194988037087
H            4.91932772609566        2.96681281362474       -4.18719753054395
H            4.16758491304512        4.34482729719415       -6.07432917576007
H            2.67635834710514        3.41109514608219       -7.79465286973158
H            1.90758202523232        1.07360694834125       -7.65143752110904
N            2.71649135301049       -0.61404443587496       -5.49299408290926
C            3.39180098083936       -0.92121618565103       -4.33839616306996
H            2.10958176347429       -1.23958854089424       -6.02621933425895
H            3.33230371164639       -1.86716668086441       -3.82491032108726
