48
 energy: -9.070532871615 gnorm: 0.000599110693 xtb: 6.6.0 (2ccbbd7)
C            0.63556642000606       -2.25399109935291        2.36973294050463
C            0.11618573020356       -1.44561762068475        1.38596927162922
C            1.94124683681086       -2.73741770476415        2.27692853830038
C            2.70152266768234       -2.37417704941176        1.16577162545834
C            2.17356060047867       -1.56793885059768        0.18631014328761
C            0.87253050583250       -1.09540847364820        0.27635068180344
H           -0.88975652609689       -1.07209003224591        1.47280283941258
H            3.71462640830506       -2.72930363122755        1.10213001483964
H            2.78263478929917       -1.26192413885594       -0.64721139272822
H            0.03975689480190       -2.51985292539120        3.22448570952498
C            0.30911491587044       -0.19892367243972       -0.78506355098622
C            0.84867712195462        1.23347266614050       -0.72610228003582
H           -0.78252890934550       -0.18099750819922       -0.70772153199163
H            0.52917242106716       -0.62082399386141       -1.77027331198427
C            2.31303463473661        1.29720934559886       -1.07912693291412
O            2.49154084740735       -3.55302557754988        3.24747143471666
H            1.84684198339633       -3.69234364900091        3.97454056653656
O            3.15456052333717        1.21952210800142       -0.20571078938185
N            0.10525607799706        2.15265797790240       -1.59104241199284
H            0.76658501477555        1.60206382147052        0.30916306712873
H           -0.06550422403369        1.71273672866402       -2.48732148456932
H           -0.80834253236040        2.34159934463844       -1.19894687467838
N            2.63279272949576        1.47720099182951       -2.40698846475446
C            3.86410295841373        2.17194706536380       -2.74105130404678
H            1.88866015262423        1.62556981362441       -3.09517393661157
C            3.64689354745099        3.65925565667798       -2.66356151337930
O            4.72116844430359        4.49146806208917       -2.76739279448255
O            2.37056311314569        4.16160853526271       -2.50274018153877
H            1.71069074413045        3.47946492509484       -2.19088361506161
C            4.41214949443761        1.70856170092832       -4.11167493326099
H            4.58079450476019        1.89189592915817       -1.95379616369471
C            5.87556012556236        1.40832579520232       -4.09721471188736
H            4.19622751017195        2.46802520992797       -4.86997006817745
H            3.87072011351253        0.80918801194250       -4.42357914489442
C            6.89148893678347        2.22848697613765       -3.53125629480690
C            6.84487823757520        3.46460513848743       -2.88212355262681
C            8.00175329458956        4.01148098214191       -2.41502013206807
C            9.22998590959400        3.34746423332912       -2.57843477731309
C            9.30256676951584        2.13641039490690       -3.21345074990090
C            8.12022435615802        1.56260872952422       -3.70007282964130
H            5.73752707460715        3.99783083988372       -2.80163180038648
H            7.97016279122007        4.96525691036161       -1.91544278731334
H           10.12870096684043        3.80207478022056       -2.19591235086005
H           10.23769585211407        1.62163749844872       -3.34189692131794
N            7.85394153185170        0.37661593904212       -4.36234228910517
C            6.50171196380525        0.29220902342700       -4.59642318993408
H            8.55899007980814       -0.31866757883131       -4.61379583895068
H            6.01204953179140       -0.53151570619244       -5.08998348665883
