48
Energy =
C     0.1545153   -1.1219693    3.4216429 
C     1.2813965   -0.7080578    2.7858512 
C    -0.2837065   -0.4681019    4.5295853 
C     0.4084547    0.5959153    4.9943719 
C     1.5335089    1.0147335    4.3614936 
C     1.9778883    0.3659370    3.2487233 
H     1.6194127   -1.2369337    1.8978137 
H     0.0486699    1.1084643    5.8799999 
H     2.0731621    1.8726002    4.7533722 
H    -0.3974618   -1.9749005    3.0407455 
C     3.2340834    0.8408573    2.5391897 
C     2.9899812    1.8303687    1.3624931 
H     3.8119952   -0.0378872    2.1739606 
H     3.9014102    1.3360507    3.2794675 
C     2.7022669    1.1465191    0.0351163 
O    -1.4388647   -0.8685214    5.2079384 
H    -1.9069420   -1.6665313    4.7925295 
O     1.8519070    0.0504287   -0.0421959 
N     1.9594499    2.8313364    1.6839638 
H     3.9495058    2.3714197    1.1864974 
H     1.0224484    2.3638078    1.7473880 
H     2.1628054    3.2694510    2.6119235 
N     3.1033655    1.7760630   -1.1816347 
C     4.3460110    1.2824848   -1.8045517 
H     2.5163363    2.5596227   -1.5426931 
C     5.0638907    2.3579839   -2.6163543 
O     6.4403708    2.4871767   -2.4835515 
O     4.4046666    3.1988712   -3.5134180 
H     3.4348484    2.9478883   -3.6195107 
C     4.0635467    0.0001178   -2.6172765 
H     5.0704953    1.0071011   -1.0032589 
C     3.0430389    0.2001474   -3.7155878 
H     3.6839471   -0.7839309   -1.9235521 
H     5.0119395   -0.3990246   -3.0376564 
C     3.2834606    0.4975356   -5.0024130 
C     4.4625555    0.6969053   -5.6456279 
C     4.4321859    1.0109826   -6.9725700 
C     3.2377841    1.1210368   -7.6295306 
C     2.0660772    0.9217661   -6.9616469 
C     2.1225800    0.6116536   -5.6494029 
H     5.4119750    0.6304340   -5.1220601 
H     5.3628570    1.1839835   -7.5073273 
H     3.2221610    1.3763044   -8.6858481 
H     1.1097960    1.0137205   -7.4646806 
N     1.0283421    0.3890124   -4.7718827 
C     1.7125410    0.1325599   -3.5378846 
H     0.0023517    0.4095988   -4.9705226 
H     1.2226866   -0.0748728   -2.5866305 
