48
Energy =
C     0.3174073    3.3474866    4.3158398 
C     0.9272243    2.8846281    3.1952778 
C    -0.8797248    3.9869259    4.2282509 
C    -1.4585292    4.1586074    3.0180372 
C    -0.8533078    3.6977519    1.8943046 
C     0.3464558    3.0601633    1.9764089 
H     1.8820088    2.3717068    3.2809864 
H    -2.4133251    4.6693768    2.9611443 
H    -1.3349904    3.8431926    0.9307796 
H     0.7891958    3.2036582    5.2817640 
C     1.0122630    2.5300211    0.7264531 
C     0.3901445    1.1915191    0.2612880 
H     2.1062026    2.4088594    0.8900304 
H     0.9176319    3.2939356   -0.0797860 
C     0.8545371    0.8352064   -1.1409049 
O    -1.5357927    4.4743367    5.3635652 
H    -1.0336756    4.3121446    6.2295196 
O     0.4399891    1.6206397   -2.2106640 
N     0.6816775    0.1162819    1.2278588 
H    -0.7153045    1.3119564    0.1685203 
H     1.7014592    0.1162291    1.4673198 
H     0.1606953    0.2991167    2.1185435 
N     1.7119482   -0.2918852   -1.3826570 
C     3.0914703   -0.0541145   -1.8514047 
H     1.3346970   -1.2487031   -1.2000663 
C     3.7578487    1.1316299   -1.1486373 
O     3.8317389    2.3710552   -1.7750022 
O     4.2651091    1.0073891    0.1470647 
H     4.1150040    0.0811248    0.5209093 
C     3.1050493    0.0677015   -3.3915933 
H     3.7120249   -0.9364207   -1.5769240 
C     2.8158726   -1.2635214   -4.0517676 
H     4.1033180    0.4210872   -3.7351333 
H     2.3771500    0.8393441   -3.7259830 
C     1.6234691   -1.7333767   -4.4549344 
C     0.3978912   -1.1501632   -4.4238362 
C    -0.6695696   -1.8555417   -4.8961667 
C    -0.4989668   -3.1199285   -5.3877653 
C     0.7407645   -3.6862408   -5.4101701 
C     1.7809889   -2.9675106   -4.9379263 
H     0.2585815   -0.1467861   -4.0374877 
H    -1.6607363   -1.4084496   -4.8818425 
H    -1.3547633   -3.6756807   -5.7625132 
H     0.8937276   -4.6884121   -5.7957560 
N     3.1401374   -3.3733740   -4.8645922 
C     3.7409228   -2.2141101   -4.2742356 
H     3.5788656   -4.2758784   -5.1586889 
H     4.7971361   -2.1271812   -4.0300400 
