48
 energy: -9.284292421377 gnorm: 0.000533600761 xtb: 6.6.0 (2ccbbd7)
C           -0.28644803296109        6.79991615965656       -1.17925413989261
C            0.41978397831940        5.99324208882278       -0.31820055641133
C           -1.21899528976874        6.25416202959195       -2.06213498581450
C           -1.40510943619057        4.87241629007407       -2.05325192878718
C           -0.69349506293425        4.07520002880313       -1.19018368166270
C            0.22215573510638        4.61990531991423       -0.30254017609870
H            1.13669350103345        6.42742192093697        0.35726620901166
H           -2.11322810039395        4.44816092097332       -2.74255448181818
H           -0.82642970028831        3.00733712080502       -1.20489644925157
H           -0.12744888741169        7.86333233027656       -1.17936696282429
C            1.00132368901305        3.74177037580154        0.62923949991907
C            2.12750688809395        2.95943672702491       -0.06744235365676
H            0.31703374606973        3.03334632956728        1.10789957935162
H            1.41794366426075        4.35492156511356        1.43479388470471
C            1.56653673188155        1.82244353886000       -0.90657837784255
O           -1.95277759699001        7.03790324496374       -2.93162032342178
H           -1.69404401853934        7.97979288520308       -2.83676020973170
O            0.42550867142313        1.45076880015991       -0.70548082056655
N            2.97265027185298        3.85301087288972       -0.84464083244164
H            2.76628757974481        2.49001077634772        0.69820188810495
H            2.46007449591883        4.20098747223152       -1.64267013175176
H            3.25899014963597        4.65132005654309       -0.29426249958907
N            2.32956587422778        1.19976903455643       -1.87449420452555
C            3.55552333365451        1.74089906361683       -2.46590881284918
H            1.89529646388759        0.46977729205661       -2.43492889059669
C            3.21791536035525        2.78902644716167       -3.51653375073668
O            4.12890104164135        3.33570388825656       -4.09847604865443
O            1.90379627238734        3.06124280045284       -3.72256519203605
H            1.33609370256228        2.51195751049980       -3.13596708054517
C            4.42216049886001        0.60080699696581       -3.02414155617429
H            4.11772296395190        2.23472314841028       -1.66255522989091
C            5.88748301464127        0.88810753532693       -3.04325959612224
H            4.08184517190447        0.34953037322616       -4.03313727907271
H            4.25090750380942       -0.29247503345110       -2.41539576074829
C            6.92650230955146        0.02932838004777       -2.57375484210404
C            6.91932899728132       -1.23611780787476       -1.96152222456725
C            8.11435111720055       -1.80529963208649       -1.61818365341243
C            9.33093029521717       -1.14965462400112       -1.86748347972723
C            9.36280171922180        0.08162285191144       -2.46247257033216
C            8.15001463643539        0.68342669333652       -2.82093913584903
H            5.98698849577945       -1.73710012231414       -1.77157533789183
H            8.12528448416834       -2.77432081470882       -1.14743034914368
H           10.25438343544625       -1.62681582907536       -1.58395396287785
H           10.28953921693824        0.59098205361498       -2.65682645985156
N            7.86066112867391        1.89673128699096       -3.42013163338605
C            6.49963505364321        2.00617273763599       -3.54871730483873
H            8.55634251875968        2.58606919171469       -3.71095706483912
H            5.98064412350484        2.85020480371639       -3.97065566607429
