48
Energy =
C     0.1806190   -4.2749535    1.1056416 
C     0.5958923   -3.2098598    0.3742240 
C    -0.3208962   -5.3764645    0.4854961 
C    -0.4013168   -5.4048086   -0.8641718 
C     0.0127355   -4.3428843   -1.6006217 
C     0.5095872   -3.2352310   -0.9844567 
H     1.0033998   -2.3404002    0.8836656 
H    -0.7991874   -6.2903739   -1.3471741 
H    -0.0539203   -4.3875287   -2.6845594 
H     0.2537514   -4.2443449    2.1873093 
C     0.9890703   -2.0587430   -1.8059707 
C     2.4124102   -2.2869676   -2.3631057 
H     0.9648439   -1.1254119   -1.2007852 
H     0.2783784   -1.8986795   -2.6477365 
C     2.7771080   -1.2264191   -3.3871892 
O    -0.7579501   -6.4907978    1.2094306 
H    -0.6612425   -6.3919996    2.2140404 
O     2.8858255   -1.5722206   -4.7292198 
N     3.4008884   -2.3389748   -1.2699487 
H     2.4340441   -3.2530055   -2.9243983 
H     3.2142254   -1.5866924   -0.5639017 
H     3.3087426   -3.2527919   -0.7649504 
N     2.8401440    0.1603106   -3.0329540 
C     4.1460406    0.6602734   -2.5703074 
H     1.9714134    0.7366602   -3.0957127 
C     3.9987360    1.9630846   -1.7904203 
O     4.4473995    2.0267276   -0.4778414 
O     3.4415223    3.1085245   -2.3634716 
H     3.1141512    2.9398257   -3.3024481 
C     5.0910235    0.8102758   -3.7840393 
H     4.5888309   -0.0689918   -1.8521501 
C     6.5113644    1.0773537   -3.3424627 
H     4.7365183    1.6201010   -4.4578092 
H     5.0700028   -0.1192057   -4.3996483 
C     7.3953576    0.1687758   -2.9014879 
C     7.2654126   -1.1761367   -2.7642544 
C     8.3234256   -1.8810239   -2.2705068 
C     9.4797505   -1.2387596   -1.9221443 
C     9.5840263    0.1136062   -2.0629466 
C     8.5245733    0.7885147   -2.5563874 
H     6.3431530   -1.6883486   -3.0268361 
H     8.2434281   -2.9586582   -2.1469414 
H    10.3165244   -1.8077464   -1.5246141 
H    10.4900538    0.6397044   -1.7822156 
N     8.4159556    2.1908834   -2.7585485 
C     7.0754339    2.2949207   -3.2591208 
H     9.1271982    2.9397046   -2.5925381 
H     6.5738279    3.2334057   -3.4941218 
