48
Energy =
C     1.1392607   -3.3729247    2.4881077 
C     0.5638909   -2.7327498    1.4354932 
C     2.4256994   -3.0950371    2.8397124 
C     3.1247519   -2.1738274    2.1391180 
C     2.5441599   -1.5378227    1.0938810 
C     1.2652343   -1.7990851    0.7364387 
H    -0.4555334   -2.9813097    1.1530750 
H     4.1509073   -1.9596304    2.4148529 
H     3.0777586   -0.7399269    0.4195844 
H     0.5724290   -4.1148238    3.0399310 
C     0.6723606   -1.1408210   -0.5028733 
C     1.1337112    0.3267968   -0.7723340 
H    -0.4359741   -1.1447580   -0.4116859 
H     0.9215683   -1.7694029   -1.3815650 
C     2.6329324    0.4627673   -1.1111359 
O     3.0514847   -3.7463806    3.9075553 
H     2.4542425   -4.4072805    4.3919411 
O     3.5898650    0.0064208   -0.2034454 
N     0.2809561    0.9085148   -1.8249434 
H     1.0055970    0.9190891    0.1655131 
H     0.2628646    0.2742068   -2.6589880 
H    -0.7035473    0.9920437   -1.4754491 
N     3.0807350    1.2038843   -2.2580926 
C     4.4755086    0.9957130   -2.7065576 
H     2.4053455    1.8239619   -2.7576782 
C     5.0661644    2.2691659   -3.2932744 
O     6.2592764    2.7609472   -2.7791907 
O     4.4751972    2.9378773   -4.3675121 
H     3.6400164    2.4760446   -4.6910782 
C     4.5589368   -0.1747028   -3.7188801 
H     5.1323523    0.7797162   -1.8323776 
C     4.0037864   -1.4730591   -3.1703999 
H     5.6208416   -0.3401046   -4.0097340 
H     4.0136393    0.0958909   -4.6495058 
C     4.5280782   -2.2369044   -2.1970285 
C     5.6717206   -2.0777058   -1.4822553 
C     5.9565525   -2.9842165   -0.5036514 
C     5.1069516   -4.0273474   -0.2594644 
C     3.9713450   -4.1752127   -0.9984511 
C     3.7133199   -3.2677606   -1.9633469 
H     6.3455234   -1.2479476   -1.6689248 
H     6.8602585   -2.8716784    0.0905159 
H     5.3354035   -4.7392892    0.5300703 
H     3.2851333   -4.9944581   -0.8143502 
N     2.5874912   -3.2342341   -2.8291623 
C     2.8483002   -2.0337564   -3.5691894 
H     1.7863915   -3.9033182   -2.8936410 
H     2.1899289   -1.6242278   -4.3316977 
