48
Energy =
C    -1.9553461    5.3364123   -0.7851112 
C    -0.8601257    4.6521802   -0.3677181 
C    -2.5247278    5.0489181   -1.9858968 
C    -1.9925573    4.0782172   -2.7620209 
C    -0.9002872    3.3882647   -2.3479680 
C    -0.3238206    3.6718088   -1.1473584 
H    -0.4192166    4.8955256    0.5950794 
H    -2.4498249    3.8632769   -3.7216957 
H    -0.4846733    2.6174328   -2.9910798 
H    -2.3753657    6.1139534   -0.1560488 
C     0.9030576    2.9107369   -0.6832400 
C     2.2414322    3.4821742   -1.2230852 
H     0.8057933    1.8427748   -0.9800808 
H     0.9380714    2.9027485    0.4290424 
C     2.4413165    3.2155607   -2.7089851 
O    -3.6556638    5.7326450   -2.4432246 
H    -3.9851628    6.4551582   -1.8125416 
O     1.7478154    3.9749891   -3.6417456 
N     2.3848848    4.9129513   -0.9081442 
H     3.0649700    2.9397278   -0.7079529 
H     1.7204027    5.4751491   -1.4948831 
H     2.1474559    5.0894469    0.0951134 
N     2.9757433    1.9590675   -3.1414505 
C     4.4444229    1.7997918   -3.0911882 
H     2.3091494    1.1873580   -3.3703960 
C     5.1475459    2.6572202   -4.1436699 
O     6.3497180    3.2685628   -3.8116615 
O     4.6749397    2.7739307   -5.4496669 
H     3.7591917    2.3614261   -5.5453772 
C     4.8172927    0.3057219   -3.2604009 
H     4.8446088    2.1555102   -2.1137400 
C     4.6578264   -0.5140183   -1.9882345 
H     5.8791594    0.2517474   -3.5870113 
H     4.2130602   -0.1553908   -4.0723848 
C     5.4360584   -1.5425632   -1.6014362 
C     6.5380940   -2.0772200   -2.1924551 
C     7.1488315   -3.1378677   -1.5905364 
C     6.6547298   -3.6484325   -0.4230473 
C     5.5451722   -3.1027530    0.1492306 
C     4.9602285   -2.0518245   -0.4629164 
H     6.9350801   -1.6850837   -3.1229909 
H     8.0326885   -3.5810149   -2.0433994 
H     7.1465032   -4.4952572    0.0490758 
H     5.1365713   -3.5004122    1.0719685 
N     3.7948118   -1.3599122   -0.0435709 
C     3.6598757   -0.3915352   -1.0899034 
H     3.2007138   -1.5194121    0.8020046 
H     2.8454602    0.3201120   -1.1431758 
