48
Energy =
C     7.4306092    1.8085640   -1.0334462 
C     6.4761303    2.3230950   -0.2181541 
C     7.8934105    0.5473497   -0.8342724 
C     7.4048620   -0.1874515    0.1891834 
C     6.4542779    0.3228962    1.0118384 
C     5.9590026    1.5736645    0.7992378 
H     6.1138210    3.3320143   -0.4165954 
H     7.7808559   -1.1926691    0.3409763 
H     6.0870226   -0.2939098    1.8224378 
H     7.8146517    2.4062417   -1.8534068 
C     4.8734725    2.1571238    1.6927168 
C     3.5873913    1.2836582    1.8985861 
H     4.5352526    3.1388423    1.2710333 
H     5.3359604    2.4144902    2.6679163 
C     3.2853298    0.2770029    0.7782761 
O     8.8669909   -0.0154170   -1.6680799 
H     9.2088757    0.6158586   -2.3848590 
O     3.5424177   -1.0757701    0.9765507 
N     3.6224151    0.6338887    3.2189948 
H     2.6964057    1.9563522    1.9067640 
H     4.4059794   -0.0572343    3.2668001 
H     3.7600274    1.3383914    3.9802526 
N     2.5791290    0.6523629   -0.4199994 
C     3.4965463    1.0560409   -1.5130687 
H     1.8387794    1.3592477   -0.2098333 
C     3.6444122    2.5685757   -1.7197614 
O     4.3323073    3.0055822   -2.8493151 
O     3.2831828    3.5306014   -0.7603801 
H     2.7936603    3.1985275    0.0583012 
C     3.0267146    0.3546803   -2.8024708 
H     4.5365297    0.7091388   -1.3198259 
C     3.2298246   -1.1410907   -2.6968337 
H     3.5882383    0.7312942   -3.6873501 
H     1.9547262    0.5904700   -2.9844771 
C     4.3941560   -1.7988830   -2.8148691 
C     5.6358501   -1.3254352   -3.0954160 
C     6.6770663   -2.2059441   -3.1077526 
C     6.4646990   -3.5307734   -2.8439131 
C     5.2091429   -3.9828509   -2.5638112 
C     4.1948632   -3.0925982   -2.5597483 
H     5.8110332   -0.2713961   -3.2913449 
H     7.6841425   -1.8490989   -3.3138388 
H     7.3022908   -4.2237157   -2.8466830 
H     5.0251869   -5.0273481   -2.3371661 
N     2.8318196   -3.3449062   -2.2492188 
C     2.2801400   -2.0231023   -2.3408674 
H     2.3616218   -4.2524578   -2.0282786 
H     1.2582763   -1.7588336   -2.0750057 
