48
Energy =
C     3.6080529   -2.9506886    4.0488194 
C     3.7218051   -1.9900558    3.0968300 
C     3.3530157   -4.2383566    3.6936021 
C     3.2113735   -4.5553765    2.3864810 
C     3.3238337   -3.5990067    1.4303386 
C     3.5842858   -2.3095991    1.7804793 
H     3.9218502   -0.9640026    3.3962479 
H     3.0043553   -5.5850462    2.1159948 
H     3.1997871   -3.8737173    0.3861192 
H     3.7199785   -2.6864321    5.0948463 
C     3.6985161   -1.2360539    0.7219458 
C     2.4126552   -0.3843269    0.6135276 
H     3.9325435   -1.6855713   -0.2675877 
H     4.5595986   -0.5781960    0.9771145 
C     2.6510873    0.8488436   -0.2345167 
O     3.2312439   -5.2522714    4.6492813 
H     3.3420299   -4.9333155    5.6055614 
O     2.7429987    2.0933929    0.3775597 
N     1.2974800   -1.1828880    0.0783424 
H     2.1344269    0.0032632    1.6225079 
H     1.5780387   -1.6322041   -0.8253842 
H     1.0530157   -1.9466082    0.7514250 
N     2.9206836    0.7346113   -1.6396382 
C     4.2902940    1.1948707   -1.9803647 
H     2.1915700    1.3174306   -2.1155548 
C     4.2967361    2.5816893   -2.6388128 
O     4.2117114    2.6913991   -4.0227585 
O     4.3745975    3.7514695   -1.8889087 
H     4.2480574    3.5716802   -0.9028695 
C     4.9199812    0.1259911   -2.8971506 
H     4.9350887    1.2766352   -1.0718402 
C     6.3980509    0.3689477   -3.1172460 
H     4.3832773    0.1093338   -3.8737524 
H     4.7715838   -0.8821089   -2.4554339 
C     7.4031266   -0.0345855   -2.3243998 
C     7.3699634   -0.7667454   -1.1810542 
C     8.5484306   -1.0368979   -0.5502549 
C     9.7286098   -0.5742879   -1.0636121 
C     9.7372147    0.1616446   -2.2113703 
C     8.5585477    0.4129677   -2.8185797 
H     6.4358682   -1.1338577   -0.7697473 
H     8.5497205   -1.6223091    0.3662827 
H    10.6638625   -0.7920227   -0.5535345 
H    10.6639940    0.5404171   -2.6291876 
N     8.3465682    1.1658031   -4.0041551 
C     6.9180168    1.0953381   -4.1235238 
H     9.0441621    1.6378567   -4.6246695 
H     6.3346285    1.5947157   -4.8986500 
