48
Energy =
C     5.4905678   -3.0056169    1.3862709 
C     4.2514685   -2.4513210    1.4127738 
C     6.5307863   -2.3827245    2.0010851 
C     6.3243033   -1.2078142    2.6377317 
C     5.0879308   -0.6486668    2.6664627 
C     4.0412364   -1.2703942    2.0571627 
H     3.4299580   -2.9546899    0.9067125 
H     7.1635526   -0.7201569    3.1217601 
H     4.9439122    0.2992828    3.1787746 
H     5.6483734   -3.9457362    0.8684798 
C     2.6689658   -0.6295744    2.0682529 
C     2.5410850    0.4580300    0.9748503 
H     2.4946095   -0.1805119    3.0708234 
H     1.8714342   -1.3957051    1.9355615 
C     2.4822660   -0.1188720   -0.4401730 
O     7.8191721   -2.9258241    1.9912985 
H     7.8914341   -3.8070530    1.4947341 
O     2.1861225   -1.4627123   -0.6456526 
N     1.3605337    1.2953393    1.2382062 
H     3.4484740    1.1018472    1.0196328 
H     0.5016517    0.6933917    1.2727396 
H     1.4529409    1.7618697    2.1719289 
N     2.5741753    0.7355941   -1.5897520 
C     3.9555314    1.2191388   -1.8423294 
H     1.8560099    1.4908151   -1.5066200 
C     4.0814200    2.7491625   -1.8705871 
O     4.9722190    3.3499680   -2.7519619 
O     3.4369269    3.5688055   -0.9437459 
H     2.8889063    3.0548300   -0.2732037 
C     4.4571934    0.5581002   -3.1467825 
H     4.6619868    0.9022261   -1.0393027 
C     3.5586476    0.8427928   -4.3365496 
H     4.5243227   -0.5402563   -2.9900445 
H     5.4927506    0.8988011   -3.3728334 
C     2.4880771    0.1307876   -4.7288729 
C     1.9468509   -0.9965374   -4.1986055 
C     0.8402806   -1.5275236   -4.7926056 
C     0.2971580   -0.9333136   -5.8977541 
C     0.8571976    0.1970905   -6.4142830 
C     1.9511418    0.7039332   -5.8076908 
H     2.3690887   -1.4674394   -3.3159139 
H     0.3864588   -2.4252674   -4.3798151 
H    -0.5863685   -1.3617595   -6.3639473 
H     0.4378218    0.6831110   -7.2884853 
N     2.6767862    1.8658046   -6.1815901 
C     3.6990469    1.8861727   -5.1750988 
H     2.5143646    2.5227202   -6.9791242 
H     4.4721572    2.6495266   -5.0992192 
