48
Energy =
C     1.5639203    5.9493418   -0.1198731 
C     1.1272388    4.7730365    0.3961932 
C     2.8966897    6.1952822   -0.2305313 
C     3.7846261    5.2563048    0.1695890 
C     3.3521915    4.0796298    0.6937325 
C     2.0190074    3.8344210    0.8164729 
H     0.0585637    4.5893654    0.4730480 
H     4.8461171    5.4574280    0.0548065 
H     4.0788417    3.3307022    1.0015526 
H     0.8443502    6.6935161   -0.4436408 
C     1.5261590    2.5173344    1.3762190 
C     1.3199724    1.4646741    0.2623056 
H     0.5694249    2.6884962    1.9172244 
H     2.2376781    2.1243635    2.1384079 
C     2.6505665    0.9617084   -0.2780581 
O     3.3766690    7.4034714   -0.7468058 
H     2.6506163    8.0418624   -1.0511986 
O     3.4601454    0.1775845    0.5427114 
N     0.5122647    0.3462855    0.7717035 
H     0.7708746    1.9276095   -0.5895024 
H     1.0153161   -0.1082984    1.5727376 
H    -0.4038658    0.7003293    1.1323593 
N     3.2165793    1.5585872   -1.4586405 
C     4.6894900    1.5897224   -1.5788639 
H     2.5828215    2.0180703   -2.1494523 
C     5.2161114    2.9521072   -2.0125637 
O     6.2498035    3.5256555   -1.2836054 
O     4.7279998    3.6440914   -3.1209790 
H     3.9279356    3.1905782   -3.5321646 
C     5.1715651    0.4314998   -2.4779891 
H     5.1623651    1.4390491   -0.5794105 
C     4.6116353    0.4876137   -3.8827982 
H     4.8849242   -0.5310500   -1.9981663 
H     6.2838789    0.4331551   -2.5188489 
C     3.4540740   -0.0407728   -4.3123260 
C     2.5209465   -0.7618888   -3.6385662 
C     1.4107451   -1.1765457   -4.3129346 
C     1.2504532   -0.8683167   -5.6355048 
C     2.1995902   -0.1419610   -6.2914708 
C     3.2897821    0.2560517   -5.6025808 
H     2.6414861   -1.0036041   -2.5862049 
H     0.6488900   -1.7535339   -3.7939741 
H     0.3618525   -1.2020678   -6.1653603 
H     2.0859126    0.1141614   -7.3393503 
N     4.3792092    1.0266546   -6.0902562 
C     5.1899606    1.1337499   -4.9110150 
H     4.5415074    1.4096906   -7.0501876 
H     6.1141927    1.7088104   -4.8414330 
