48
Energy =
C     3.5020496    1.3870970    2.8193071 
C     2.3912682    1.9136346    2.2430588 
C     3.5375517    0.0707384    3.1598521 
C     2.4548717   -0.7060634    2.9353217 
C     1.3466291   -0.1885829    2.3529070 
C     1.3077776    1.1256193    1.9980710 
H     2.3865400    2.9635318    1.9585024 
H     2.4897753   -1.7527743    3.2123745 
H     0.4976185   -0.8381018    2.1600646 
H     4.3670562    2.0192727    2.9917292 
C     0.0904369    1.6893163    1.2932310 
C     0.1786415    1.5472953   -0.2433525 
H    -0.0434508    2.7604663    1.5680332 
H    -0.8222229    1.1677448    1.6556655 
C     1.2664813    2.4471962   -0.8190125 
O     4.6742901   -0.5104360    3.7316678 
H     5.4429123    0.1399150    3.8591412 
O     1.1216729    3.8232811   -0.7005396 
N     0.3580373    0.1270514   -0.5959513 
H    -0.7748284    1.9233695   -0.6836261 
H    -0.4562649   -0.4278033   -0.2421114 
H     0.3530757    0.0142602   -1.6368468 
N     2.2385672    1.9490428   -1.7454387 
C     3.5113744    1.4752529   -1.1702511 
H     1.9998585    1.9190625   -2.7604976 
C     4.4627249    2.6276035   -0.8524046 
O     5.2219815    2.5746243    0.3111974 
O     4.6646633    3.6912048   -1.7328667 
H     4.0228664    3.6521468   -2.5098071 
C     4.1685119    0.4584270   -2.1269749 
H     3.3159947    0.9628117   -0.2009632 
C     3.3770479   -0.8285164   -2.1808327 
H     5.2016026    0.2213865   -1.7842298 
H     4.2648973    0.8963472   -3.1453642 
C     3.3376258   -1.7822703   -1.2372208 
C     3.9987448   -1.8636115   -0.0536577 
C     3.7834949   -2.9545522    0.7351145 
C     2.9165519   -3.9344735    0.3366723 
C     2.2631186   -3.8304995   -0.8560899 
C     2.4963018   -2.7428544   -1.6208619 
H     4.6842451   -1.0847491    0.2687858 
H     4.3032828   -3.0397045    1.6880286 
H     2.7489072   -4.8001604    0.9724278 
H     1.5739016   -4.5991057   -1.1880310 
N     1.9279216   -2.4444708   -2.8894240 
C     2.5500269   -1.1849183   -3.1788755 
H     1.2402823   -2.9960473   -3.4516466 
H     2.3656482   -0.5993669   -4.0758551 
