48
Energy =
C     2.0839852   -3.9915862   -6.2717807 
C     2.5778110   -2.8821158   -5.6657628 
C     0.8148906   -4.4052778   -6.0117875 
C     0.0477932   -3.7047956   -5.1460414 
C     0.5359269   -2.5946310   -4.5372535 
C     1.8063383   -2.1774959   -4.7921332 
H     3.5939252   -2.5649243   -5.8866742 
H    -0.9627647   -4.0452701   -4.9476067 
H    -0.0969366   -2.0445977   -3.8448630 
H     2.7063183   -4.5472370   -6.9652247 
C     2.3438115   -0.9314510   -4.1246403 
C     1.7985653    0.3622316   -4.7762565 
H     3.4554713   -0.9309635   -4.1359722 
H     2.0545995   -0.9562042   -3.0477994 
C     2.1011096    1.5800526   -3.9171044 
O     0.2752378   -5.5429580   -6.6199340 
H     0.9120684   -6.0154407   -7.2524490 
O     1.5108875    1.6994641   -2.6645165 
N     2.3282726    0.5190011   -6.1434287 
H     0.6841548    0.3175712   -4.8171126 
H     3.3797241    0.5349348   -6.1318031 
H     2.0272178   -0.2838917   -6.7431708 
N     3.0654340    2.5530922   -4.3329836 
C     4.2948399    2.7528021   -3.5313157 
H     2.9094797    3.0397776   -5.2462351 
C     5.3491365    3.4872302   -4.3518829 
O     5.9549457    4.6248040   -3.8255171 
O     5.7306384    3.0348753   -5.6227137 
H     5.2526319    2.1856360   -5.9007282 
C     4.8586480    1.4179891   -2.9776762 
H     4.0419751    3.4159263   -2.6748088 
C     6.0605684    1.6410271   -2.0848756 
H     5.1185114    0.7367070   -3.8148405 
H     4.0853253    0.9041114   -2.3672236 
C     7.3552213    1.5914844   -2.4384709 
C     7.9218371    1.3229118   -3.6429722 
C     9.2817702    1.3490756   -3.7403405 
C    10.0476076    1.6392723   -2.6453127 
C     9.4571124    1.9081068   -1.4463318 
C     8.1097165    1.8759902   -1.3753474 
H     7.3174326    1.1077241   -4.5194812 
H     9.7569194    1.1487519   -4.6975499 
H    11.1306114    1.6647378   -2.7336200 
H    10.0490532    2.1490040   -0.5702841 
N     7.3041198    2.1394209   -0.2347508 
C     5.9892468    1.9740845   -0.7839271 
H     7.6005099    2.3795540    0.7391262 
H     5.0628319    2.1187566   -0.2294527 
