48
Energy =
C    -2.1216339   -3.2969453   -4.8838186 
C    -1.3804388   -2.2733380   -5.3785279 
C    -2.5791931   -3.2535638   -3.6041513 
C    -2.2918648   -2.1844747   -2.8280853 
C    -1.5551826   -1.1564514   -3.3190480 
C    -1.0900898   -1.1945150   -4.5981477 
H    -1.0189351   -2.3259656   -6.4020094 
H    -2.6550471   -2.1638427   -1.8065498 
H    -1.3272026   -0.3112127   -2.6752323 
H    -2.3462619   -4.1508890   -5.5138181 
C    -0.2576906   -0.0527753   -5.1509239 
C     1.2599237   -0.1617350   -4.8516563 
H    -0.6442918    0.9119657   -4.7528229 
H    -0.3981948    0.0064316   -6.2526968 
C     1.5969450    0.1054779   -3.3938398 
O    -3.3452176   -4.2917342   -3.0642700 
H    -3.5141722   -5.0567583   -3.7079372 
O     1.2429664   -0.8011958   -2.3990151 
N     1.8174774   -1.4465027   -5.3134022 
H     1.7620852    0.6596532   -5.4169978 
H     1.3794648   -2.2285098   -4.7670980 
H     1.5647178   -1.5972917   -6.3185152 
N     2.3726690    1.2611890   -3.0451549 
C     3.6269317    0.8743975   -2.3568344 
H     1.7733608    1.7903372   -2.3690483 
C     4.3290869    2.0893500   -1.7524072 
O     4.2069957    3.3343606   -2.3566803 
O     5.1637392    1.9662780   -0.6407440 
H     5.1979008    1.0201260   -0.2905321 
C     4.5781577    0.1398994   -3.3461130 
H     3.3720891    0.2227135   -1.4849214 
C     5.0715287   -1.1623031   -2.7612485 
H     5.4328847    0.7857267   -3.6454716 
H     4.0666964   -0.0826134   -4.3081729 
C     6.2430662   -1.3830849   -2.1444000 
C     7.2819951   -0.5387231   -1.9147567 
C     8.3652162   -1.0143243   -1.2363884 
C     8.3926556   -2.3094132   -0.7984075 
C     7.3347583   -3.1365714   -1.0330442 
C     6.2758334   -2.6443353   -1.7093218 
H     7.2602262    0.4959527   -2.2458040 
H     9.2084957   -0.3568934   -1.0369302 
H     9.2584207   -2.6787235   -0.2542567 
H     7.3361415   -4.1631491   -0.6825108 
N     5.0692878   -3.3244776   -2.0271422 
C     4.3370266   -2.2869292   -2.6972983 
H     4.7962586   -4.3144346   -1.8251964 
H     3.3045800   -2.3716545   -3.0462738 
