48
Energy =
C     0.6916788    3.3176053    4.1337140 
C     0.4900396    2.1507195    3.4705206 
C     1.9527330    3.7959338    4.3068970 
C     3.0034248    3.1043116    3.8125766 
C     2.8079440    1.9360983    3.1506064 
C     1.5482994    1.4487386    2.9786682 
H    -0.5241531    1.7836497    3.3342199 
H     4.0022197    3.5027152    3.9508445 
H     3.6652810    1.3990137    2.7525359 
H    -0.1582152    3.8679206    4.5229937 
C     1.3156995    0.1572553    2.2224962 
C     0.9334102    0.4193524    0.7453829 
H     0.5040149   -0.4096124    2.7282491 
H     2.2181204   -0.4938693    2.2651921 
C     2.1027273    0.9140735   -0.0981579 
O     2.1970476    4.9927082    4.9875134 
H     1.3575053    5.4609098    5.3112334 
O     3.4137003    0.7483225    0.3551661 
N     0.3601376   -0.7993190    0.1538007 
H     0.1654731    1.2269850    0.7095043 
H     1.0551091   -1.5814957    0.2301216 
H    -0.4958663   -1.0821976    0.6857993 
N     1.8345193    1.5933304   -1.3430638 
C     3.0278532    1.7851696   -2.2050243 
H     1.1082233    1.0368055   -1.8493714 
C     2.9007258    3.0975299   -2.9746827 
O     2.9486280    3.1064117   -4.3655415 
O     2.7768630    4.3154987   -2.3070647 
H     2.7017555    4.1779565   -1.3085782 
C     3.2369853    0.5815479   -3.1677330 
H     3.9478853    1.9312781   -1.5992230 
C     3.3779938   -0.7468076   -2.4563926 
H     4.1442506    0.7552160   -3.7873586 
H     2.3855255    0.5345761   -3.8841778 
C     4.4405791   -1.1839727   -1.7625652 
C     5.6272530   -0.5751717   -1.5137149 
C     6.5546223   -1.2415299   -0.7659945 
C     6.2835128   -2.4933444   -0.2861149 
C     5.0830640   -3.0843988   -0.5480470 
C     4.1826142   -2.4035031   -1.2875543 
H     5.8308721    0.4242710   -1.8839063 
H     7.5107786   -0.7729953   -0.5437240 
H     7.0253376   -3.0181029    0.3110565 
H     4.8506129   -4.0753428   -0.1728882 
N     2.8848748   -2.8352778   -1.6713728 
C     2.4300356   -1.7005792   -2.4209903 
H     2.3937106   -3.7339452   -1.4598441 
H     1.4482977   -1.6238412   -2.8831765 
