48
 energy: -9.280858297938 gnorm: 0.000806666254 xtb: 6.6.0 (2ccbbd7)
C            2.06707178623347       -4.70522787771298        1.93300000871855
C            1.60662938187858       -3.41846857452438        1.78287465859497
C            2.47033284317124       -5.44898718123186        0.82338638310906
C            2.38829627118463       -4.85469271452787       -0.43557620731805
C            1.92472166695486       -3.56887957116217       -0.57773480807009
C            1.52640991252393       -2.83149384537381        0.52755067362539
H            1.30564716522069       -2.85137995337306        2.64715963250267
H            2.69850084323827       -5.42827850478692       -1.29073136801768
H            1.87130735442898       -3.11997983453382       -1.55474760168177
H            2.12322318551057       -5.15100358059466        2.91001838185563
C            1.08482889676187       -1.40958210047953        0.37130656820766
C            2.22824476320789       -0.47598854298630       -0.03690953000433
H            0.65529602738487       -1.04236087301668        1.30814560010230
H            0.27522523362393       -1.34833258352743       -0.36333479747465
C            1.74205903786733        0.95208337898583       -0.17571428857072
O            2.94595588290807       -6.74117026427263        0.93948564283480
H            2.92526269116622       -7.02478401202577        1.87903738279683
O            0.65975380015765        1.25405073540353        0.28647802141679
N            3.33948885409012       -0.53417126632116        0.90473368431235
H            2.60936036916783       -0.80862002489234       -1.01260795053225
H            3.08162356793412       -0.02309442100825        1.73742865006402
H            3.50284885808577       -1.49165017623159        1.18721274773487
N            2.54579423260863        1.88397768968582       -0.79604585182155
C            3.93496309220650        1.64483652664125       -1.18445230683116
H            2.29330580004819        2.87514574130634       -0.75434854827773
C            4.72324604128826        2.93601208450872       -1.08648001981173
O            4.11104160801453        3.98074823579668       -1.09539372318880
O            6.07285241980039        2.81379358119211       -1.01490706403444
H            6.33920265712936        1.87520787163939       -1.11962406251954
C            4.02791134949725        1.04695788630038       -2.58870763379739
H            4.35308961538768        0.94829656296097       -0.44920224046418
C            5.39248090824500        0.55713885896006       -2.94418217483772
H            3.71368935536624        1.81169846314470       -3.30563718342342
H            3.31112431251984        0.22907617227579       -2.69953878030554
C            6.19777112714158       -0.36030685659690       -2.20042045987495
C            6.00511954917167       -1.05702517992679       -0.99443204428704
C            7.00778328546127       -1.86310382477926       -0.53367805122579
C            8.21491538552405       -1.99950063607892       -1.23699541037345
C            8.42916360010663       -1.32790982566248       -2.40861457046155
C            7.41307102983496       -0.49876324603249       -2.89908769484896
H            5.08923794353984       -0.94945697350255       -0.44153770197343
H            6.87288628918151       -2.40316154058436        0.38895758340413
H            8.98514528987793       -2.64221936955486       -0.84382929873159
H            9.35173914521462       -1.42132966707496       -2.95307954110373
N            7.34214098403042        0.30198925429122       -4.02435874541916
C            6.12533131970960        0.93536669574445       -4.04221989950377
H            8.09429423186898        0.41745638604230       -4.70601828206301
H            5.80774585721798        1.63662249886995       -4.79718882369513
