48
 energy: -8.967954446482 gnorm: 0.000848541999 xtb: 6.6.0 (2ccbbd7)
C           -2.49517634811450       -2.43022875362831       -4.29822654775906
C           -2.12803678454628       -1.80616185227288       -3.12919198888624
C           -1.54101593359576       -3.05939015658256       -5.09847661480496
C           -0.21154986613340       -3.03779756660948       -4.67892922990395
C            0.14472435247830       -2.41418026316760       -3.50755668990065
C           -0.80328415398774       -1.78505892089075       -2.71464006881699
H           -2.87281208642112       -1.31758469885163       -2.52427835663281
H            0.52788272982147       -3.51239601862696       -5.29883471151766
H            1.17903273162291       -2.37372437156397       -3.21124593363825
H           -3.52447228212543       -2.43805238153801       -4.60929091483357
C           -0.40918122505076       -1.05111979174813       -1.46724945452969
C            0.04090181171890        0.40314022483127       -1.69022863707693
H            0.39413652584788       -1.59959805088670       -0.96453396211197
H           -1.25797279690453       -1.07043567521777       -0.77478691971776
C            1.52542960618184        0.53058894900378       -2.12699592333756
O           -1.87659768996757       -3.69260235330680       -6.28051294233334
H           -2.84479338176050       -3.62787803648496       -6.43125539932542
O            1.84531736058847       -0.32775603540686       -3.25495721691982
N           -0.73285432004782        1.11890885558483       -2.77898915165480
H           -0.06471204625767        0.97266568237641       -0.75543745722999
H           -1.09928729317816        0.41934224659412       -3.44754593109095
H           -1.55452421554123        1.62932356212354       -2.39752499923012
N            2.53653027511539        0.48383237041715       -1.03814164709609
C            3.94355931333327        0.88185186452791       -1.28223449811663
H            2.19790059364542        1.10888390993801       -0.29630124447209
C            4.05488921373525        2.39580077717160       -1.21147146977806
O            3.06708600696795        3.01376077639294       -0.87532588475835
O            5.25175849586195        2.96446074047370       -1.50877948809957
H            5.93625585817009        2.28783510645949       -1.70268074819388
C            4.56654285158133        0.28426496337600       -2.55811266457497
H            4.50876219298570        0.49203159759573       -0.42069438235301
C            3.93917762018142        0.74779701574827       -3.82137150620789
H            4.46438446438253       -0.80514991179538       -2.51463160602469
H            5.64132135537770        0.48378411209961       -2.59673163271165
C            2.44063004817757        0.80026073124701       -3.95741971053490
C            1.61732248176922        1.77650067748709       -3.06835171669601
C            0.18993921543320        2.06590234999901       -3.57396342597025
C           -0.00281695673668        1.91081790771803       -5.05395080656860
C            0.93954949963536        1.41555935284364       -5.90430604358565
C            2.15677915009418        0.93415635040083       -5.42884697974776
H            2.18037434836975        2.62680652612833       -2.66537809773814
H           -0.02109027171536        3.31993671433682       -3.34243830128880
H           -0.93951735206076        2.25079561962453       -5.46097475289990
H            0.77480674850142        1.43773725676308       -6.96777642677258
N            3.39592217375800        0.83603853518492       -6.02730243714088
C            4.43400686312361        0.72285294614444       -5.08103808505875
H            3.56111123709467        1.02176301435960       -7.01667060422942
H            5.46888104798658        0.56473833106868       -5.33397533785706
