48
Energy =
C    -2.0167737    0.0309468    1.5326131 
C    -0.8848343    0.2576988    0.8196822 
C    -2.9180310    1.0318812    1.7206275 
C    -2.6803192    2.2535241    1.1910578 
C    -1.5499433    2.4857828    0.4769582 
C    -0.6419497    1.4891162    0.2918993 
H    -0.1782192   -0.5539235    0.6696024 
H    -3.4082092    3.0425734    1.3451666 
H    -1.3785720    3.4732113    0.0556365 
H    -2.2006678   -0.9531660    1.9495367 
C     0.6112663    1.7419419   -0.5143861 
C     0.3543092    1.6644521   -2.0364554 
H     1.4026955    1.0180807   -0.2305878 
H     1.0109588    2.7486867   -0.2533416 
C     1.5816127    2.1036974   -2.8111474 
O    -4.0943001    0.8317386    2.4504327 
H    -4.2012411   -0.1101025    2.8105774 
O     1.7439958    3.4470400   -3.1237926 
N    -0.0689717    0.3086314   -2.4321168 
H    -0.4421670    2.3967524   -2.3132951 
H     0.5506394   -0.4092403   -1.9866258 
H    -1.0412446    0.1317192   -2.0839308 
N     2.6809894    1.2073893   -3.0085566 
C     3.9090339    1.4685903   -2.2333395 
H     2.5632525    0.4234865   -3.6883301 
C     4.8449651    2.4491153   -2.9393839 
O     5.5654339    3.3565616   -2.1707950 
O     5.0947613    2.3884705   -4.3114830 
H     4.4850310    1.7290257   -4.7685685 
C     4.6254880    0.1333232   -1.9396407 
H     3.6499283    1.9514253   -1.2629555 
C     3.7753737   -0.7769282   -1.0816057 
H     5.5899654    0.3240221   -1.4160541 
H     4.8807945   -0.3764737   -2.8958231 
C     3.5672712   -0.6711239    0.2399776 
C     4.0647030    0.2254857    1.1300048 
C     3.6630626    0.1377244    2.4303871 
C     2.7805659   -0.8329256    2.8170187 
C     2.2954359   -1.7231401    1.9056084 
C     2.7092656   -1.6169583    0.6255655 
H     4.7627984    0.9995976    0.8238751 
H     4.0460973    0.8442529    3.1633440 
H     2.4641835   -0.8947080    3.8555158 
H     1.5918130   -2.4962884    2.1952136 
N     2.3040590   -2.4154962   -0.4770924 
C     3.0388712   -1.8018368   -1.5447635 
H     1.6396910   -3.2230992   -0.5046956 
H     2.9847807   -2.1114583   -2.5860291 
