48
Energy =
C    -0.9620611    5.4742092    0.8314831 
C    -1.2625384    4.6570887   -0.2094780 
C     0.0647370    6.3598870    0.7311488 
C     0.7831230    6.4231243   -0.4125451 
C     0.4860767    5.6098633   -1.4570324 
C    -0.5384520    4.7169502   -1.3619849 
H    -2.0854144    3.9536218   -0.1123311 
H     1.5995602    7.1340618   -0.4816033 
H     1.0734319    5.6832503   -2.3685837 
H    -1.5450827    5.4171885    1.7445095 
C    -0.8660512    3.7922551   -2.5192652 
C    -0.0333473    2.4827067   -2.5257450 
H    -0.7121296    4.3329672   -3.4807909 
H    -1.9479069    3.5343767   -2.5022075 
C     1.4596027    2.7318504   -2.7527579 
O     0.4010252    7.2143619    1.7857952 
H    -0.1867460    7.1095949    2.6055709 
O     1.8168225    3.6674290   -3.7155588 
N    -0.3067836    1.6868610   -1.3152265 
H    -0.3575690    1.8874070   -3.4090613 
H     0.0071497    2.2079670   -0.4624754 
H    -1.3371678    1.5246200   -1.2257289 
N     2.4502990    1.8423498   -2.1845973 
C     3.8653241    1.7528114   -2.6293140 
H     2.1327150    1.1887888   -1.4339224 
C     4.3442985    2.7922651   -3.6553026 
O     5.1289078    3.8557725   -3.2209324 
O     4.0961675    2.6611802   -5.0252590 
H     3.3323273    2.0245354   -5.1925435 
C     4.1424844    0.2982952   -3.0762883 
H     4.4976100    1.9507097   -1.7344155 
C     5.6166805    0.0539380   -3.3167179 
H     3.5626720    0.0598702   -3.9941096 
H     3.7776834   -0.4103661   -2.3010109 
C     6.5391852   -0.2673996   -2.3958798 
C     6.4002871   -0.4821038   -1.0621538 
C     7.5135694   -0.7887648   -0.3360872 
C     8.7349327   -0.8715856   -0.9458813 
C     8.8506279   -0.6471757   -2.2857348 
C     7.7342730   -0.3486374   -2.9828036 
H     5.4327571   -0.4105685   -0.5750637 
H     7.4301233   -0.9649114    0.7335565 
H     9.6180842   -1.1129779   -0.3598276 
H     9.8125909   -0.7018443   -2.7838615 
N     7.6389013   -0.0637502   -4.3711609 
C     6.2339400    0.1951182   -4.5030650 
H     8.3896698   -0.0530748   -5.0991783 
H     5.7463117    0.5086444   -5.4258150 
