48
Energy =
C    -0.7761784   -0.6333114    2.8178769 
C     0.4944163   -0.2248297    3.0649384 
C    -1.0122901   -1.6288940    1.9222591 
C     0.0259828   -2.2113597    1.2818131 
C     1.2978560   -1.8079396    1.5255492 
C     1.5419358   -0.8074083    2.4173149 
H     0.6660049    0.5742157    3.7816803 
H    -0.1744213   -3.0056143    0.5712290 
H     2.1172400   -2.2933464    1.0023129 
H    -1.6029495   -0.1609139    3.3376737 
C     2.9610122   -0.3370146    2.6769423 
C     3.4494794    0.7423535    1.6762635 
H     3.6516885   -1.2100941    2.6401681 
H     3.0460107    0.0588403    3.7128895 
C     3.5049908    0.2202389    0.2394245 
O    -2.3087628   -2.0717506    1.6424214 
H    -3.0316722   -1.5874252    2.1636855 
O     4.1019740   -1.0185642    0.0197737 
N     2.6515307    1.9743627    1.8121324 
H     4.5072951    0.9817006    1.9314988 
H     1.6470382    1.7878056    1.5787469 
H     2.6850694    2.3111810    2.8035047 
N     3.3502801    1.0959919   -0.8937937 
C     4.6556573    1.5265079   -1.4576535 
H     2.7213927    1.8951402   -0.6548220 
C     4.7805935    3.0494540   -1.5977232 
O     5.2753881    3.6115589   -2.7686056 
O     4.5118327    3.9021219   -0.5281880 
H     4.2719432    3.3945775    0.3099529 
C     4.8776268    0.7761864   -2.7927785 
H     5.5044370    1.2491741   -0.7878363 
C     3.7104355    0.9175842   -3.7539495 
H     5.0448270   -0.3003133   -2.5731361 
H     5.8108653    1.1352397   -3.2813499 
C     2.6215884    0.1314542   -3.8228274 
C     2.2917988   -0.9699726   -3.0990070 
C     1.1074581   -1.5917654   -3.3642296 
C     0.2793106   -1.1119782   -4.3405073 
C     0.6314005   -0.0074344   -5.0576167 
C     1.8081402    0.5904315   -4.7757979 
H     2.9454724   -1.3525467   -2.3219938 
H     0.8210353   -2.4724032   -2.7949281 
H    -0.6638588   -1.6122495   -4.5452462 
H    -0.0139214    0.3871878   -5.8349459 
N     2.3531733    1.7440230   -5.3986675 
C     3.5839077    1.8901606   -4.6756035 
H     1.9663310    2.3247783   -6.1777342 
H     4.3061613    2.6866552   -4.8469750 
