48
 energy: -9.288739457411 gnorm: 0.000577356581 xtb: 6.6.0 (2ccbbd7)
C            0.23219910291564       -0.90322917024288        4.10231827131896
C            1.39042066529992       -0.23585623203576        3.78087189262332
C           -0.32685165181054       -1.82248768238339        3.21422992517419
C            0.31916158483827       -2.04103889378485        1.99840642518380
C            1.47488054775054       -1.36830645090341        1.68523846472875
C            2.03046023416374       -0.45743694135196        2.57066166047097
H            1.81135755102033        0.47551051850657        4.47064541382734
H           -0.11347766424029       -2.74545924174645        1.31070029503251
H            1.96360452150332       -1.56071426139421        0.74688238530417
H           -0.25619739184443       -0.72051612634324        5.04266088993086
C            3.26507532670976        0.30804874627069        2.21032103517088
C            2.96975129636864        1.71946454173079        1.68032739141464
H            3.83129727313529       -0.26181679483686        1.46776256002016
H            3.91073228882825        0.38147340721569        3.09107677794785
C            2.04217704111851        1.67477399111822        0.48885131011837
O           -1.48603323824249       -2.51545397182879        3.50590207503332
H           -1.84002021118956       -2.23003908289026        4.37548016194324
O            0.86041356234658        1.86773110988652        0.68877082923632
N            2.35272012501898        2.55013804956568        2.70164313311577
H            3.91414393573516        2.20572691645377        1.38836058230883
H            2.26894219310219        3.49842835406358        2.35877099398175
H            1.39759410239497        2.21942359088780        2.79702343469001
N            2.52528104421344        1.40879668108264       -0.77231598172573
C            3.94081387219774        1.31093631589690       -1.13067351661651
H            1.88165152867217        1.41030791047417       -1.55975330720816
C            4.47953560882014        2.64217494690609       -1.61090828418509
O            5.60886947096297        2.65722244700552       -2.05074839176497
O            3.66707125538594        3.72145878221558       -1.50006025439573
H            2.80248579246406        3.46972582519123       -1.10325487454847
C            4.15650102530536        0.21623164968846       -2.17069401057369
H            4.50142774391584        1.03488442002643       -0.23008234897402
C            3.75341661396098       -1.11712921012829       -1.64396517736360
H            5.20808555269380        0.19804956658092       -2.47533033193249
H            3.58327185639713        0.45299201883557       -3.07151722807645
C            4.48491380385273       -1.89526657295864       -0.69940196924274
C            5.73963874036147       -1.72302078785955       -0.09072561688497
C            6.15621656827247       -2.65192873049688        0.82188761899773
C            5.35520180486537       -3.75764759742796        1.15146411664084
C            4.13060917438033       -3.94479313045280        0.57077232987567
C            3.68509283153890       -3.00534333800629       -0.36729598491165
H            6.34792525062072       -0.87350218263884       -0.34627879659454
H            7.11597815392784       -2.53574304454155        1.29742415838632
H            5.71376316538703       -4.47031012386982        1.87561224209808
H            3.50867616809193       -4.78510105834208        0.82204534871569
N            2.50197161818802       -2.89042430948584       -1.07697070546857
C            2.55102920948979       -1.75049923014980       -1.84075871820950
H            1.73727871379667       -3.56741540126287       -1.04873486406201
H            1.75143481897256       -1.39477900770186       -2.47050575734126
