48
Energy =
C     1.8781123   -2.9808339    3.3952070 
C     1.9825158   -1.7972230    2.7387995 
C     1.3594226   -4.0691085    2.7652779 
C     0.9430251   -3.9633361    1.4830762 
C     1.0430990   -2.7824182    0.8230970 
C     1.5636076   -1.6907313    1.4478668 
H     2.4109713   -0.9401301    3.2516749 
H     0.5335173   -4.8377518    0.9899150 
H     0.7192026   -2.7195317   -0.2131512 
H     2.2164728   -3.0563758    4.4227801 
C     1.7240011   -0.3900327    0.6895895 
C     2.8608517   -0.4736739   -0.3522523 
H     1.9090841    0.4629778    1.3786491 
H     0.7684509   -0.1621110    0.1682438 
C     2.9101282    0.7485762   -1.2671337 
O     1.2485478   -5.3062920    3.4090305 
H     1.5653367   -5.2984661    4.3723298 
O     2.3590746    1.9587166   -0.8576552 
N     4.1593008   -0.6857057    0.3014607 
H     2.6465535   -1.3482758   -0.9957519 
H     4.2853892    0.0131703    1.0704456 
H     4.1703398   -1.6404911    0.7302032 
N     3.3218807    0.6192323   -2.6368100 
C     4.7136370    0.1969778   -2.9005544 
H     2.6114445    0.7989693   -3.3790131 
C     5.5693126    1.3468277   -3.4131546 
O     6.8406755    1.5246343   -2.8815609 
O     5.1625896    2.1701967   -4.4638510 
H     4.2169638    1.9739196   -4.7498535 
C     4.7196690   -0.9867387   -3.8936078 
H     5.2179757   -0.1241675   -1.9594266 
C     3.9868330   -2.1886652   -3.3392763 
H     5.7685144   -1.2817535   -4.1242072 
H     4.2608915   -0.6724827   -4.8572466 
C     4.4196191   -3.0277606   -2.3833856 
C     5.6006071   -3.0503231   -1.7134238 
C     5.7755451   -3.9902065   -0.7403243 
C     4.7784435   -4.8813040   -0.4530646 
C     3.6026745   -4.8420461   -1.1417687 
C     3.4561692   -3.9081967   -2.1046588 
H     6.3886684   -2.3357771   -1.9318989 
H     6.7102501   -4.0260763   -0.1855170 
H     4.9215139   -5.6225174    0.3296487 
H     2.7993015   -5.5366132   -0.9218754 
N     2.3077810   -3.6789795   -2.9106542 
C     2.7332432   -2.5398096   -3.6754311 
H     1.4019254   -4.2029709   -2.9255972 
H     2.1141422   -2.0063530   -4.3955193 
