48
Energy =
C    -1.7143175   -0.9243382   -4.0922334 
C    -0.3882992   -0.8758941   -3.8028620 
C    -2.4280228   -2.0519196   -3.8373712 
C    -1.8108924   -3.1228985   -3.2911590 
C    -0.4870258   -3.0779914   -2.9970942 
C     0.2373415   -1.9518707   -3.2523613 
H     0.1634235    0.0376493   -4.0031409 
H    -2.3919200   -4.0164544   -3.0899987 
H    -0.0148535   -3.9512615   -2.5554046 
H    -2.2041941   -0.0571661   -4.5226661 
C     1.7218979   -1.9131068   -2.9231301 
C     2.0831496   -1.2217494   -1.5801521 
H     2.3886208   -1.4205423   -3.8338427 
H     2.1021791   -2.9585321   -2.8756629 
C     2.1605091    0.3053543   -1.6849075 
O    -3.7930696   -2.1365224   -4.1271613 
H    -4.1891012   -1.2834665   -4.5066957 
O     1.0470466    1.0265117   -2.0945517 
N     1.1908104   -1.6478820   -0.4900655 
H     3.1099763   -1.5659994   -1.3259913 
H     0.2401142   -1.2251489   -0.6308478 
H     1.0806236   -2.6882128   -0.4958572 
N     3.2936336    1.0351652   -1.1772874 
C     4.0492373    1.7854954   -2.2127575 
H     3.9351865    0.3833575   -0.6733689 
C     3.4422004    3.1358366   -2.6023098 
O     4.0448542    3.8518735   -3.6313388 
O     2.4003739    3.7478992   -1.9095108 
H     2.0081528    3.1397206   -1.2057136 
C     4.4917352    0.9058102   -3.4228059 
H     4.9997019    2.1067814   -1.7290469 
C     3.4028846    0.4983724   -4.4021126 
H     4.9871945   -0.0028294   -3.0217650 
H     5.2712313    1.4542157   -4.0002685 
C     3.0464108   -0.9263075   -4.7422554 
C     4.2164305   -1.8362841   -5.0667155 
C     4.2133945   -2.5733785   -6.1957841 
C     3.2659259   -2.4093007   -7.1489126 
C     2.3101834   -1.4562441   -7.0596733 
C     2.1811787   -0.7075920   -5.9502647 
H     5.0012079   -1.9902480   -4.3318885 
H     5.0108798   -3.2947969   -6.3597044 
H     3.3371199   -2.9958302   -8.0617532 
H     1.7037298   -1.2262521   -7.9296824 
N     1.7752000    0.6523136   -6.0305892 
C     2.6528978    1.3388812   -5.1328813 
H     1.0059767    1.0632821   -6.6087749 
H     2.7421227    2.4216971   -5.1132739 
