48
Energy =
C    -0.2268455    0.7400272    3.8988227 
C     0.1597255    1.5195176    2.8571829 
C     0.4216181   -0.4270689    4.1569613 
C     1.4533085   -0.8061508    3.3695673 
C     1.8459037   -0.0290804    2.3291772 
C     1.1995194    1.1393337    2.0634894 
H    -0.3694217    2.4486189    2.6635071 
H     1.9586638   -1.7418104    3.5806306 
H     2.6724506   -0.3541955    1.7033909 
H    -1.0558819    1.0524485    4.5244928 
C     1.6299500    2.0064887    0.8971854 
C     0.9631210    1.6293376   -0.4508828 
H     2.7369595    1.9598165    0.7909028 
H     1.4096946    3.0734068    1.1227713 
C     1.4042886    0.2654733   -0.9670175 
O     0.0497691   -1.2520742    5.2236459 
H    -0.7373715   -0.9028322    5.7590312 
O     0.9117242   -0.9042951   -0.4004672 
N    -0.5040326    1.7308031   -0.3716788 
H     1.3148407    2.3680800   -1.2087393 
H    -0.8779774    0.9717106    0.2489480 
H    -0.7780761    2.6483859    0.0504479 
N     2.2416601    0.1603680   -2.1232694 
C     3.6874951    0.3604594   -1.9212741 
H     1.7898895   -0.0241368   -3.0469958 
C     4.0533803    1.8404400   -1.9391274 
O     4.7990725    2.3698785   -0.8946836 
O     3.6460510    2.6884212   -2.9692598 
H     3.1010096    2.1948974   -3.6594356 
C     4.4541031   -0.4434523   -2.9901856 
H     3.9789228   -0.0326116   -0.9177267 
C     5.9350577   -0.5113261   -2.6839443 
H     4.2851608   -0.0161774   -4.0020520 
H     4.0498843   -1.4810616   -3.0175860 
C     6.8923332    0.3316346   -3.1056116 
C     6.8049564    1.4188025   -3.9148830 
C     7.9434164    2.1194227   -4.1851282 
C     9.1393296    1.7277658   -3.6501504 
C     9.2035471    0.6335106   -2.8397166 
C     8.0634167   -0.0430934   -2.5870059 
H     5.8571159    1.7396734   -4.3349106 
H     7.8970901    2.9984464   -4.8235161 
H    10.0411737    2.2947002   -3.8667890 
H    10.1427664    0.3127577   -2.4023201 
N     7.9124748   -1.1932245   -1.7668382 
C     6.5028153   -1.4262988   -1.8782057 
H     8.6364234   -1.7255480   -1.2321351 
H     5.9695577   -2.2235878   -1.3652628 
