48
Energy =
C     0.0533566    5.6489756   -4.8150401 
C    -0.0645598    4.3014962   -4.9275825 
C     1.0457704    6.1890329   -4.0596352 
C     1.9117717    5.3740196   -3.4165108 
C     1.7999666    4.0218490   -3.5280135 
C     0.8063932    3.4730775   -4.2843535 
H    -0.8581888    3.8946601   -5.5482043 
H     2.6867522    5.8219493   -2.8006992 
H     2.5048352    3.3092169   -2.8728058 
H    -0.6467646    6.2933389   -5.3352277 
C     0.7197627    1.9650361   -4.4961679 
C     0.3011881    1.0560779   -3.2898936 
H     1.6796115    1.6187418   -4.9322603 
H     0.0091821    1.7581425   -5.3269752 
C     1.2992600   -0.0864792   -3.0165993 
O     1.1919425    7.5734354   -3.9181949 
H     0.5110249    8.1136172   -4.4400673 
O     1.1612742   -1.2482658   -3.7680638 
N    -0.1074025    1.8029993   -2.0868576 
H    -0.6050127    0.4971145   -3.6251142 
H     0.6686726    2.3933153   -1.7217104 
H    -0.8920198    2.4504150   -2.3358147 
N     2.2187970   -0.1181159   -1.8999816 
C     3.5946153    0.3483473   -2.2313458 
H     1.8097461    0.4297229   -1.1120305 
C     3.5942572    1.7186459   -2.8924624 
O     3.9493869    1.8682300   -4.2252954 
O     3.1424269    2.6805665   -2.2995195 
H     2.9520935    2.6366506   -1.3514072 
C     4.3310556   -0.7179363   -3.0716534 
H     4.1653494    0.4861896   -1.2848443 
C     4.5028920   -2.0034232   -2.2967431 
H     5.3228689   -0.3355050   -3.3976302 
H     3.7667821   -0.9206739   -4.0086728 
C     5.5172559   -2.3251699   -1.4794643 
C     6.6376555   -1.6255713   -1.1641922 
C     7.5217654   -2.1800460   -0.2856394 
C     7.2737614   -3.4089169    0.2612436 
C     6.1390328   -4.0903548   -0.0661380 
C     5.2813938   -3.5223626   -0.9396664 
H     6.8337033   -0.6473786   -1.5926588 
H     8.4274307   -1.6411393   -0.0173532 
H     7.9822786   -3.8432838    0.9621581 
H     5.9237498   -5.0631241    0.3625985 
N     4.0442312   -4.0513742   -1.3958292 
C     3.5993893   -2.9968529   -2.2641717 
H     3.5843175   -4.9611145   -1.1619280 
H     2.6431752   -2.9737155   -2.7904700 
