48
Energy =
C    -2.0857858    6.4175799   -0.2543703 
C    -2.0251091    5.1977484   -0.8460671 
C    -1.0476344    7.2877277   -0.3736697 
C     0.0449095    6.9304055   -1.0854157 
C     0.1101349    5.7129262   -1.6803064 
C    -0.9242880    4.8350737   -1.5616432 
H    -2.8634316    4.5141992   -0.7418199 
H     0.8674496    7.6316535   -1.1714261 
H     0.9978808    5.4451007   -2.2457004 
H    -2.9669633    6.6952546    0.3138814 
C    -0.8542658    3.4716765   -2.2205699 
C    -0.2399815    2.3651205   -1.3248973 
H    -0.2783904    3.5455382   -3.1694140 
H    -1.8748710    3.1582200   -2.5328586 
C     1.2159918    2.6267033   -0.9576771 
O    -1.0793246    8.5530849    0.2216385 
H    -1.9279886    8.7407945    0.7439943 
O     1.5493325    3.6058609   -0.0260462 
N    -1.0633803    2.1266170   -0.1287550 
H    -0.2414684    1.4267260   -1.9246766 
H    -1.0151150    2.9582199    0.5087877 
H    -2.0644981    1.9933488   -0.4030214 
N     2.2700152    1.9296367   -1.6375019 
C     3.1899148    2.7490364   -2.4493655 
H     2.3282557    0.8914754   -1.5464752 
C     2.5482096    3.2190342   -3.7522076 
O     2.7761564    4.5189644   -4.1871756 
O     1.7295327    2.3927159   -4.5227127 
H     1.7157825    1.4519551   -4.1551841 
C     4.5308151    2.0044589   -2.6571753 
H     3.4337509    3.6804554   -1.8849808 
C     4.4233623    0.7877411   -3.5533036 
H     4.9245586    1.6930697   -1.6630679 
H     5.2877764    2.7053070   -3.0734935 
C     4.5302098    0.7571207   -4.8922818 
C     4.7642908    1.7647151   -5.7726360 
C     4.8206528    1.4646661   -7.1019663 
C     4.6483449    0.1766465   -7.5275144 
C     4.4178081   -0.8191915   -6.6257073 
C     4.3645069   -0.4966457   -5.3163599 
H     4.8978605    2.7895459   -5.4398374 
H     5.0000358    2.2548186   -7.8268294 
H     4.6934545   -0.0541095   -8.5886002 
H     4.2786575   -1.8459427   -6.9459969 
N     4.1356732   -1.3754171   -4.2249577 
C     4.1937601   -0.4646245   -3.1208736 
H     3.9665212   -2.4069629   -4.2292760 
H     4.0816963   -0.7570722   -2.0798757 
