48
Energy =
C     2.3685453   -6.0327342   -2.5368299 
C     2.3342107   -4.9433162   -1.7284861 
C     2.5168354   -5.8828173   -3.8804150 
C     2.6294645   -4.6416500   -4.4058557 
C     2.5968151   -3.5490127   -3.6022772 
C     2.4457209   -3.6935046   -2.2573694 
H     2.2206518   -5.0794913   -0.6562288 
H     2.7461044   -4.5340035   -5.4783407 
H     2.6896431   -2.5591238   -4.0428245 
H     2.2788648   -7.0235790   -2.1054219 
C     2.4286796   -2.4746285   -1.3620037 
C     3.8521135   -1.9406636   -1.0762157 
H     1.9050425   -2.6915504   -0.4037754 
H     1.8254342   -1.6795213   -1.8584970 
C     3.7932737   -0.5699243   -0.4247363 
O     2.5586732   -6.9850617   -4.7411050 
H     2.4598026   -7.8779446   -4.2707518 
O     2.9789787   -0.3696195    0.6847737 
N     4.6093580   -2.8820727   -0.2351904 
H     4.3870923   -1.8075773   -2.0437466 
H     4.0727423   -3.0868677    0.6420099 
H     4.7419320   -3.7859090   -0.7461667 
N     4.8064209    0.4048341   -0.7053996 
C     4.7470206    1.2048906   -1.9473371 
H     5.5778539    0.5105818   -0.0092458 
C     3.4279466    1.0566914   -2.7195120 
O     3.2979921    0.0746019   -3.6958548 
O     2.3140466    1.8350327   -2.4092527 
H     2.4708390    2.4037929   -1.5889027 
C     5.9874410    0.8675504   -2.8028672 
H     4.8190868    2.2760680   -1.6562769 
C     6.1350159    1.8009937   -3.9872862 
H     5.9503844   -0.1938259   -3.1272538 
H     6.9002494    0.9636780   -2.1741173 
C     5.9156719    1.5220776   -5.2845181 
C     5.5279825    0.3636709   -5.8801174 
C     5.3758750    0.3492644   -7.2353879 
C     5.6130726    1.4778140   -7.9695431 
C     6.0036110    2.6285589   -7.3525505 
C     6.1459966    2.6187013   -6.0105130 
H     5.3324818   -0.5356693   -5.3055432 
H     5.0600860   -0.5644664   -7.7334574 
H     5.4871650    1.4581593   -9.0493209 
H     6.1947445    3.5331238   -7.9198565 
N     6.5417266    3.7038916   -5.1841674 
C     6.5088603    3.0894839   -3.8906448 
H     6.7923080    4.6840529   -5.4490820 
H     6.7518736    3.6015450   -2.9627120 
