48
Energy =
C     2.3309140    0.6511709    3.1099967 
C     1.5436782    1.0964360    2.0989266 
C     1.8420750   -0.2375128    4.0152004 
C     0.5661636   -0.6704717    3.9044738 
C    -0.2255568   -0.2268022    2.8962671 
C     0.2615971    0.6526772    1.9773364 
H     1.9447928    1.8209098    1.3964877 
H     0.1855887   -1.3748891    4.6356247 
H    -1.2509462   -0.5785250    2.8338285 
H     3.3502995    1.0133577    3.1953460 
C    -0.6120336    1.1472724    0.8401555 
C    -0.7471967    0.1415125   -0.3326791 
H    -0.2045463    2.1041669    0.4415726 
H    -1.6195659    1.4035192    1.2341242 
C     0.6038466   -0.3205114   -0.8753335 
O     2.6257135   -0.7160581    5.0695825 
H     3.5670436   -0.3385722    5.0875945 
O     0.9388318   -1.6717559   -0.9146717 
N    -1.6221420   -0.9866551    0.0306061 
H    -1.2361857    0.6769320   -1.1771425 
H    -1.1195624   -1.6483761    0.6683181 
H    -2.4899136   -0.6514620    0.5091032 
N     1.4932926    0.6208947   -1.4887305 
C     2.9288616    0.4876838   -1.1728909 
H     1.1077719    1.4250965   -2.0355701 
C     3.5740162    1.8313843   -0.8578432 
O     2.9676670    3.0149469   -1.2611104 
O     4.7904885    1.9052448   -0.1771939 
H     5.1514749    0.9945236    0.0672656 
C     3.6396598   -0.2411737   -2.3329368 
H     3.0614817   -0.1248560   -0.2500094 
C     3.4241894    0.4392686   -3.6687987 
H     3.2381625   -1.2791813   -2.3903020 
H     4.7266482   -0.3414903   -2.1247036 
C     4.1610499    1.4229635   -4.2106762 
C     5.2775701    2.0383237   -3.7423917 
C     5.8372531    3.0279041   -4.4959858 
C     5.2812469    3.3826165   -5.6938281 
C     4.1606503    2.7508334   -6.1447199 
C     3.6246736    1.7759390   -5.3807998 
H     5.7187785    1.7659733   -2.7885913 
H     6.7263850    3.5417168   -4.1380219 
H     5.7312706    4.1751099   -6.2865900 
H     3.7044066    3.0228455   -7.0904969 
N     2.4642459    1.0062340   -5.6628659 
C     2.4026043    0.1687686   -4.5006028 
H     1.8297412    1.0423987   -6.4937004 
H     1.6232072   -0.5671747   -4.3080804 
