48
Energy =
C     3.7527611   -4.8351276    2.3335934 
C     4.0720022   -3.5465531    2.0513316 
C     2.5289437   -5.1407014    2.8419249 
C     1.6322668   -4.1530613    3.0645348 
C     1.9459680   -2.8629850    2.7839593 
C     3.1706252   -2.5515351    2.2779547 
H     5.0523303   -3.3183208    1.6413395 
H     0.6596080   -4.4093155    3.4699693 
H     1.2111529   -2.0832077    2.9682619 
H     4.4779807   -5.6205779    2.1505785 
C     3.5128101   -1.1156630    1.9476047 
C     2.8821178   -0.6567828    0.6094567 
H     4.6148953   -0.9673399    1.9162138 
H     3.1482087   -0.4664101    2.7774237 
C     3.0394707    0.8435965    0.4160937 
O     2.1675106   -6.4582792    3.1414706 
H     2.8961804   -7.1383280    2.9546271 
O     2.7571080    1.6922640    1.4797326 
N     3.4612706   -1.4100183   -0.5177684 
H     1.7806244   -0.8254434    0.6444081 
H     4.5067916   -1.3856735   -0.4593063 
H     3.1699878   -2.4140743   -0.4502174 
N     3.0515473    1.4129473   -0.8972555 
C     4.1701284    2.3208326   -1.2164075 
H     2.3549964    1.0846080   -1.6018853 
C     3.6722101    3.6767767   -1.7146838 
O     4.4812674    4.4491297   -2.5377780 
O     2.4753001    4.2336458   -1.2659458 
H     2.0680053    3.6822489   -0.5227289 
C     5.1582561    1.6208832   -2.1839659 
H     4.7396830    2.5690055   -0.2901915 
C     4.5539551    1.2452055   -3.5265950 
H     5.5325614    0.6959408   -1.6940308 
H     6.0507783    2.2666314   -2.3282249 
C     4.7022112    1.8833056   -4.7033257 
C     5.4141391    2.9980430   -5.0157192 
C     5.4065437    3.4355150   -6.3077606 
C     4.7050654    2.7553919   -7.2632348 
C     4.0084323    1.6321904   -6.9328664 
C     4.0262427    1.2225585   -5.6471608 
H     5.9791926    3.5424298   -4.2665539 
H     5.9597924    4.3323381   -6.5773995 
H     4.7035036    3.1110632   -8.2907141 
H     3.4517398    1.0765959   -7.6799638 
N     3.3905350    0.0730572   -5.1099894 
C     3.7908708    0.1565261   -3.7367178 
H     2.7972543   -0.6419810   -5.5909047 
H     3.5267507   -0.5749248   -2.9771551 
