48
Energy =
C     3.7203163    6.0319307    1.4591932 
C     3.7609595    4.6968693    1.2173301 
C     2.6166975    6.5914514    2.0230074 
C     1.5600786    5.8097292    2.3415926 
C     1.5944803    4.4743367    2.1020032 
C     2.6974031    3.9091504    1.5392474 
H     4.6543373    4.2640510    0.7666754 
H     0.6858251    6.2682699    2.7902652 
H     0.7330948    3.8649506    2.3620960 
H     4.5730764    6.6505133    1.2001115 
C     2.7381236    2.4248161    1.2525603 
C     2.4487623    2.1144444   -0.2399025 
H     2.0190385    1.8757263    1.9006641 
H     3.7478300    2.0510989    1.5375453 
C     2.8475120    0.6867381   -0.6105095 
O     2.5419357    7.9636294    2.2841040 
H     3.3744853    8.4785256    2.0188165 
O     1.8952607   -0.2070029   -1.0876346 
N     1.0311992    2.3791602   -0.5502260 
H     3.0775068    2.7622226   -0.8895736 
H     0.4117236    1.7992258    0.0648401 
H     0.8034079    3.3869283   -0.3811605 
N     4.1388837    0.1638307   -0.2589641 
C     5.3236783    0.5596271   -1.0446197 
H     4.2086977   -0.4494961    0.5833101 
C     5.7475464    1.9955357   -0.7407743 
O     5.3817787    3.0331982   -1.5894882 
O     6.3905601    2.3219772    0.4520533 
H     6.6000939    1.5003455    1.0012023 
C     5.0822934    0.2804429   -2.5467349 
H     6.1692296   -0.0860814   -0.7174816 
C     6.3734223    0.2909891   -3.3395437 
H     4.3498321    1.0020532   -2.9661351 
H     4.6176918   -0.7252700   -2.6550260 
C     6.8166488    1.2447739   -4.1776325 
C     6.2457762    2.4197523   -4.5514048 
C     6.9159487    3.2167694   -5.4322444 
C     8.1315992    2.8324155   -5.9253181 
C     8.6851750    1.6482930   -5.5399171 
C     8.0041165    0.8777647   -4.6658761 
H     5.2832457    2.7349233   -4.1626372 
H     6.4814977    4.1648892   -5.7401003 
H     8.6598055    3.4745208   -6.6256792 
H     9.6489065    1.3284363   -5.9212529 
N     8.4026168   -0.3822817   -4.1459144 
C     7.2916712   -0.6911940   -3.2963040 
H     9.2701279   -0.9347982   -4.3343030 
H     7.2098793   -1.5963456   -2.6995627 
