48
Energy =
C     0.5184848    4.6581992   -1.1729149 
C     1.5322053    4.0386478   -1.8295199 
C    -0.4349662    5.3324852   -1.8689935 
C    -0.3687182    5.3807960   -3.2183756 
C     0.6409037    4.7619234   -3.8798421 
C     1.6010169    4.0868502   -3.1887442 
H     2.2845425    3.4985334   -1.2611594 
H    -1.1365924    5.9193353   -3.7627836 
H     0.6712972    4.8081951   -4.9651764 
H     0.4697386    4.6110865   -0.0903894 
C     2.7212196    3.3811455   -3.9266132 
C     2.4536939    1.8682645   -4.1471642 
H     3.6789366    3.5230095   -3.3768562 
H     2.8920535    3.8640160   -4.9144124 
C     2.4030163    1.0769548   -2.8382664 
O    -1.4909362    5.9834494   -1.2238315 
H    -1.4809842    5.8905204   -0.2139563 
O     1.1912984    0.5432458   -2.4033222 
N     1.2433149    1.6707642   -4.9668857 
H     3.3104434    1.4369860   -4.7129027 
H     0.3885531    1.9438765   -4.4252523 
H     1.2842595    2.2653264   -5.8273289 
N     3.4916538    1.1283690   -1.8897392 
C     4.7472868    0.4777341   -2.3486551 
H     3.1490115    0.6228362   -1.0388197 
C     5.5730819    1.4203749   -3.2131099 
O     5.8268417    1.1186547   -4.5438955 
O     6.0551707    2.6233044   -2.7014531 
H     5.8032448    2.7420337   -1.7312012 
C     4.5215373   -0.9114000   -3.0100440 
H     5.3983979    0.3129867   -1.4607085 
C     3.8067322   -1.8835825   -2.0946080 
H     5.5069612   -1.3520592   -3.2842366 
H     3.9820902   -0.7962042   -3.9719152 
C     2.6135171   -2.4687252   -2.2994903 
C     1.7567299   -2.3704130   -3.3487362 
C     0.5918349   -3.0753365   -3.3049047 
C     0.3026449   -3.8695608   -2.2296641 
C     1.1812055   -3.9624087   -1.1917036 
C     2.3262584   -3.2502734   -1.2566726 
H     1.9724676   -1.7543147   -4.2146874 
H    -0.1066682   -2.9981657   -4.1328569 
H    -0.6300550   -4.4276089   -2.2031021 
H     0.9708957   -4.5894448   -0.3316708 
N     3.3677963   -3.2163097   -0.2917809 
C     4.2891586   -2.3126975   -0.9142084 
H     3.4386980   -3.7169459    0.6238998 
H     5.2460487   -2.0233885   -0.4864017 
