48
Energy =
C     1.3687381   -0.6781572    5.0932047 
C     1.8832380    0.0756588    4.0873765 
C     0.2330958   -0.2843679    5.7283244 
C    -0.3807336    0.8599045    5.3507083 
C     0.1286055    1.6144587    4.3439305 
C     1.2664649    1.2253581    3.7049972 
H     2.7822487   -0.2505880    3.5687137 
H    -1.2861593    1.1625977    5.8647709 
H    -0.3807965    2.5294934    4.0553592 
H     1.8632756   -1.5986106    5.3838620 
C     1.8408258    2.0627787    2.5802596 
C     1.4256395    1.5958288    1.1604438 
H     2.9515074    2.0785650    2.6580302 
H     1.5319152    3.1233963    2.7110164 
C     2.1044340    0.3015987    0.7261480 
O    -0.3229025   -1.0353348    6.7691863 
H     0.1889217   -1.8841018    6.9830456 
O     1.7882750   -0.9143778    1.3236799 
N    -0.0376019    1.5093151    1.0263021 
H     1.7871800    2.3756960    0.4520693 
H    -0.3850781    0.6890816    1.5819175 
H    -0.4851741    2.3676339    1.4226850 
N     3.0953154    0.3185448   -0.3069457 
C     4.4339317   -0.1867648    0.0512194 
H     2.8535179    0.7590262   -1.2215739 
C     4.9942336    0.5841526    1.2467885 
O     5.2899352    1.9354001    1.1099370 
O     5.1772501   -0.0182005    2.4936585 
H     4.9798510   -1.0085995    2.4667757 
C     5.3771622   -0.0660804   -1.1663799 
H     4.3690628   -1.2563916    0.3446250 
C     5.3474745   -1.1696625   -2.2241995 
H     6.4237625   -0.0269024   -0.7837081 
H     5.2126782    0.9149096   -1.6653664 
C     4.4232943   -2.1185399   -2.5357603 
C     3.2233254   -2.4425938   -1.9739428 
C     2.4948757   -3.4612882   -2.5118655 
C     2.9580201   -4.1461606   -3.5956860 
C     4.1551417   -3.8178756   -4.1491361 
C     4.8614711   -2.8072538   -3.6006659 
H     2.8170547   -1.9423906   -1.1144017 
H     1.5380607   -3.7300136   -2.0693069 
H     2.3690010   -4.9574634   -4.0166381 
H     4.5385212   -4.3525741   -5.0117765 
N     6.1170076   -2.3282877   -4.0477979 
C     6.3539003   -1.2740939   -3.1146766 
H     6.7070494   -2.6571884   -4.8468939 
H     7.2327778   -0.6319756   -3.1379521 
