48
 energy: -9.284452391919 gnorm: 0.000770436383 xtb: 6.6.0 (2ccbbd7)
C            3.02212194813753       -4.16314047128885       -2.78796060169289
C            3.53228644913345       -3.30850848758006       -1.83989040644440
C            1.88501347073805       -3.81677695659953       -3.51672316581389
C            1.28225054495540       -2.58870177140883       -3.25028604542384
C            1.79866750513110       -1.74355761357613       -2.29849592760731
C            2.93079101810535       -2.08516448346569       -1.57259514043282
H            4.42278417311578       -3.58133539944297       -1.29998864028421
H            0.40013171278321       -2.32256611673514       -3.80504891943671
H            1.30257693524558       -0.81263603492970       -2.09514425026780
H            3.50010153682950       -5.10655254479304       -2.98178956273516
C            3.58336309106014       -1.14741077908262       -0.59702265905638
C            2.65094057769018       -0.27757108746301        0.26872449908405
H            4.28388338454482       -0.51731789561085       -1.14900552931644
H            4.20402839592289       -1.74495672265870        0.07921365741142
C            1.86350324321323        0.75717243752428       -0.51069965877530
O            1.35115432737853       -4.64715282235754       -4.48337697446484
H            1.87178307913070       -5.47728462273715       -4.54000438218017
O            0.69087345951689        0.53010614318037       -0.73103556813912
N            1.72979990244870       -1.10850903187748        1.02598964786457
H            3.26347617800139        0.26793282834743        1.00532373268071
H            1.10561824059440       -0.51183781596636        1.55346224538200
H            1.14211224166405       -1.59618479389581        0.36505274337090
N            2.45707154896352        1.92533466843472       -0.95300714663227
C            3.89947511164787        2.09346366308678       -1.15432582250038
H            1.90761600587986        2.53581523016110       -1.55182717730984
C            4.32707020329309        3.50754128036314       -0.80241519782980
O            5.36288962799413        3.93398230551588       -1.26443935755769
O            3.51536086807281        4.18846019896128        0.04269732718398
H            2.74010614277205        3.63806952817269        0.29905600740678
C            4.26488143283783        1.71144924642112       -2.60036253193942
H            4.42055249951314        1.42558841311202       -0.45888333007421
C            5.64772720029084        1.17517080091515       -2.75855808604615
H            4.13440736887749        2.58661259912795       -3.24439512649753
H            3.54979595406592        0.96484931966784       -2.95947893283410
C            6.01983664143514       -0.08021533119515       -3.32517776645050
C            5.27940166667043       -1.13929635554397       -3.87836813287368
C            5.94930522261392       -2.24057968411071       -4.33344320251880
C            7.34921485232695       -2.32195025171656       -4.25830943204038
C            8.09069967025062       -1.30281578495997       -3.72650208400707
C            7.42421543758706       -0.16591792453145       -3.25222632135768
H            4.20716797429368       -1.07944842339521       -3.92875607100541
H            5.39481605497078       -3.06156172254914       -4.75655937476435
H            7.84615812563047       -3.20368013489420       -4.62762605018729
H            9.16286754794923       -1.35664720639337       -3.66571175033602
N            7.88445842481756        1.00158662469402       -2.66744679981399
C            6.80682993136745        1.79910703677219       -2.37702134824335
H            8.86616478816098        1.22149411904271       -2.49006459175348
H            6.84762734864992        2.76522622423190       -1.90109183648597
