48
Energy =
C    -2.8099919   -1.9649408   -2.2839341 
C    -1.7741562   -2.2775636   -1.4604709 
C    -2.8021651   -0.7956298   -2.9835398 
C    -1.7585494    0.0550309   -2.8520919 
C    -0.7295667   -0.2618846   -2.0297849 
C    -0.7180640   -1.4282367   -1.3396094 
H    -1.7999103   -3.2085486   -0.9003698 
H    -1.7575090    0.9861256   -3.4078170 
H     0.2299260    0.4009664   -1.8518429 
H    -3.6457372   -2.6498192   -2.3782969 
C     0.4352390   -1.7285036   -0.3885087 
C     1.8292162   -1.2924467   -0.9305777 
H     0.4621880   -2.8211168   -0.1827999 
H     0.2394492   -1.2229820    0.5823005 
C     2.0105616    0.2385263   -0.9737926 
O    -3.8509939   -0.4464313   -3.8400210 
H    -4.5967659   -1.1323954   -3.8784685 
O     1.1204837    1.0330544   -1.6954972 
N     2.8919251   -1.9485807   -0.1478073 
H     1.9119951   -1.6270551   -1.9922569 
H     2.7626780   -1.7387717    0.8718239 
H     2.8220327   -2.9886518   -0.2579958 
N     3.1124377    0.8751358   -0.3161469 
C     4.3596101    1.1760273   -1.0505923 
H     3.0049639    1.1060993    0.6958938 
C     4.4559156    2.6557900   -1.4114127 
O     5.5023232    3.4082483   -0.8922983 
O     3.5721881    3.2686168   -2.2989756 
H     2.7736696    2.6795004   -2.4887261 
C     4.5627379    0.2491216   -2.2760450 
H     5.2049477    0.9904278   -0.3491377 
C     5.9401867    0.4182671   -2.8764503 
H     3.7918916    0.4595788   -3.0507441 
H     4.4233913   -0.8105750   -1.9642485 
C     7.0630658   -0.2172476   -2.5055319 
C     7.2528629   -1.1665852   -1.5527450 
C     8.5143275   -1.6495028   -1.3627278 
C     9.5550924   -1.1791879   -2.1151430 
C     9.3410828   -0.2214703   -3.0616922 
C     8.0838974    0.2379225   -3.2335603 
H     6.4309285   -1.5363170   -0.9463946 
H     8.6942151   -2.4092745   -0.6057775 
H    10.5582792   -1.5662526   -1.9545594 
H    10.1565694    0.1685186   -3.6613099 
N     7.6519545    1.2398033   -4.1433780 
C     6.2515269    1.3038463   -3.8395142 
H     8.2057854    1.7773539   -4.8493893 
H     5.5512932    2.0084612   -4.2900423 
