48
Energy =
C    -2.3250132    1.5334369   -3.4236370 
C    -1.4330432    0.5983087   -3.8381562 
C    -2.7092803    1.5812910   -2.1198587 
C    -2.1955005    0.6938859   -1.2384870 
C    -1.3030555   -0.2425925   -1.6471656 
C    -0.9227066   -0.3014298   -2.9534639 
H    -1.1241754    0.5806538   -4.8807872 
H    -2.5031088    0.7484240   -0.1999353 
H    -0.8842171   -0.9360245   -0.9206794 
H    -2.7250192    2.2464527   -4.1367100 
C     0.1029794   -1.3177752   -3.4072201 
C     1.5236521   -0.7166956   -3.4318269 
H    -0.1634358   -1.6822814   -4.4234914 
H     0.0902650   -2.2107278   -2.7421812 
C     1.9548520   -0.2404104   -2.0537498 
O    -3.6250398    2.5321893   -1.6590416 
H    -3.9540042    3.1682274   -2.3775723 
O     1.8931256   -1.1069362   -0.9670265 
N     2.4751662   -1.7061761   -3.9676138 
H     1.5238137    0.1807091   -4.0942457 
H     2.4685615   -2.5660558   -3.3649786 
H     2.1832025   -1.9945818   -4.9315708 
N     2.2014829    1.1502819   -1.8046173 
C     3.4885364    1.7716557   -2.1914930 
H     1.4438816    1.6999353   -1.3403680 
C     3.2984010    2.7603181   -3.3420195 
O     2.5472685    2.3956337   -4.4529382 
O     3.9243864    4.0077453   -3.3473805 
H     4.5139494    4.1479469   -2.5405808 
C     4.5792687    0.7157274   -2.5078102 
H     3.8343508    2.3596416   -1.3128079 
C     5.9437641    1.3470601   -2.6735653 
H     4.3082638    0.1341131   -3.4186733 
H     4.6254004   -0.0236025   -1.6758705 
C     6.5035638    1.7813764   -3.8150688 
C     6.0302163    1.7493717   -5.0877505 
C     6.8044004    2.2740970   -6.0802939 
C     8.0257369    2.8166733   -5.7907352 
C     8.4796231    2.8400339   -4.5054845 
C     7.6954738    2.3146341   -3.5408237 
H     5.0560621    1.3303353   -5.3230950 
H     6.4436175    2.2670709   -7.1061598 
H     8.6341685    3.2366540   -6.5878167 
H     9.4431968    3.2722551   -4.2580339 
N     7.9723740    2.2523671   -2.1486325 
C     6.7847190    1.6172175   -1.6599059 
H     8.8148257    2.5828693   -1.6243920 
H     6.5927667    1.3987469   -0.6118133 
