48
Energy =
C    -2.8297936    0.4160941    2.0086338 
C    -1.4941248    0.3066641    1.7961657 
C    -3.4350859    1.6320100    1.9427794 
C    -2.6981183    2.7312796    1.6641525 
C    -1.3618887    2.6278347    1.4506004 
C    -0.7508624    1.4135922    1.5186706 
H    -1.0264264   -0.6730187    1.8468663 
H    -3.1930916    3.6949374    1.6137902 
H    -0.7861633    3.5222391    1.2258881 
H    -3.4123814   -0.4715286    2.2297027 
C     0.7355210    1.2964710    1.2628532 
C     1.0840291    1.3486001   -0.2452986 
H     1.1455376    0.3630382    1.7085251 
H     1.2537431    2.1288387    1.7912320 
C     2.5878110    1.4071021   -0.4791209 
O    -4.8097996    1.7791671    2.1547685 
H    -5.2897880    0.9108771    2.3647213 
O     3.4665149    1.4524537    0.6016587 
N     0.4937194    0.2018834   -0.9549541 
H     0.6791733    2.2939827   -0.6745638 
H     0.7691060   -0.6894417   -0.4769020 
H    -0.5506587    0.2684961   -0.9260251 
N     3.0982625    1.6763149   -1.7933441 
C     4.4493093    1.1791400   -2.1170984 
H     2.4940515    2.1531733   -2.5008316 
C     5.3691042    2.3392071   -2.4755846 
O     5.9276032    2.4264713   -3.7465041 
O     5.6937157    3.3162114   -1.5363878 
H     5.1817268    3.1808821   -0.6735127 
C     4.3447581    0.1369600   -3.2508203 
H     4.9360863    0.7042234   -1.2322269 
C     3.6597717   -1.1251769   -2.7797785 
H     5.3571461   -0.1183096   -3.6370417 
H     3.7912371    0.5786903   -4.1097234 
C     4.2233607   -2.1408861   -2.1078747 
C     5.5106580   -2.3144313   -1.7119979 
C     5.8287020   -3.4472806   -1.0220112 
C     4.8665263   -4.3773639   -0.7395235 
C     3.5797178   -4.1796494   -1.1445299 
C     3.2904492   -3.0520098   -1.8270135 
H     6.2758525   -1.5751726   -1.9307043 
H     6.8523831   -3.6103399   -0.6925411 
H     5.1280237   -5.2767345   -0.1873373 
H     2.8039437   -4.9052887   -0.9250699 
N     2.0217564   -2.6495524   -2.3229913 
C     2.3483830   -1.3841031   -2.9164739 
H     1.1000592   -3.1403242   -2.2658065 
H     1.6242004   -0.7020947   -3.3603537 
