48
Energy =
C    -3.1443127   -0.6249798    1.9320580 
C    -2.3345981   -0.7099065    0.8465440 
C    -2.6289098   -0.7686914    3.1821740 
C    -1.3046207   -0.9953458    3.3370924 
C    -0.4898156   -1.0805532    2.2550842 
C    -1.0016684   -0.9421566    1.0014282 
H    -2.7607163   -0.5864851   -0.1456291 
H    -0.9059865   -1.1063833    4.3395259 
H     0.5723474   -1.2607760    2.3999817 
H    -4.2044392   -0.4400565    1.7973376 
C    -0.0901148   -1.0203774   -0.2033129 
C     0.6802514    0.3020398   -0.4399648 
H    -0.6645511   -1.2896905   -1.1170058 
H     0.6300907   -1.8558955   -0.0472406 
C     1.7670306    0.1276852   -1.4908949 
O    -3.4355568   -0.6867619    4.3219252 
H    -4.4145960   -0.5138723    4.1217531 
O     2.5759680   -1.0047469   -1.4304177 
N    -0.2561428    1.3812821   -0.8054556 
H     1.2284166    0.5829553    0.4891785 
H    -0.8891274    1.0679122   -1.5792775 
H    -0.8590015    1.6214686    0.0169725 
N     2.2317437    1.2619423   -2.2397106 
C     3.6860019    1.4266015   -2.4180263 
H     1.5378027    1.9625787   -2.5903888 
C     4.0900906    2.8859040   -2.2268568 
O     4.5205418    3.6510489   -3.3053053 
O     4.0222651    3.4893626   -0.9732125 
H     3.5615051    2.8933445   -0.3017516 
C     4.0670573    0.8615840   -3.8035205 
H     4.2438141    0.8673796   -1.6299008 
C     5.5634110    0.6858434   -3.9502898 
H     3.6723178    1.5274372   -4.6038254 
H     3.5696183   -0.1232438   -3.9493166 
C     6.2961921   -0.3436966   -3.4978105 
C     5.9071550   -1.4647593   -2.8378845 
C     6.8629723   -2.3669861   -2.4741660 
C     8.1783252   -2.1373412   -2.7700993 
C     8.5457738   -1.0029584   -3.4313116 
C     7.5812599   -0.1266622   -3.7823001 
H     4.8632559   -1.6484403   -2.5978354 
H     6.5761449   -3.2723231   -1.9441944 
H     8.9342363   -2.8607275   -2.4747689 
H     9.5849894   -0.8031593   -3.6696296 
N     7.7500735    1.1112966   -4.4578738 
C     6.3938221    1.5773281   -4.5206287 
H     8.6252462    1.5578868   -4.8165603 
H     6.0854692    2.5350876   -4.9408845 
