48
 energy: -9.200317429092 gnorm: 0.000711800190 xtb: 6.6.0 (2ccbbd7)
C           -0.05191311518394        4.75781851977642       -1.44208312950562
C            0.89797897800800        3.88317514561690       -1.91130851589973
C           -1.04369146616454        5.24903503920769       -2.29183754552985
C           -1.04338993414130        4.82544713707389       -3.62080566569331
C           -0.09170643874263        3.94673392239145       -4.08044356420471
C            0.89677229214263        3.46507031086172       -3.23411664644520
H            1.64351901228574        3.48783129839107       -1.24254512716074
H           -1.80925568955895        5.20240803441818       -4.27503388305951
H           -0.10660042377313        3.62577767788165       -5.10773916648582
H           -0.04373947600651        5.06485536533051       -0.41149260674761
C            1.92789146268702        2.50518177401112       -3.72452553259232
C            1.72215702888017        1.06813062717187       -3.24708281113260
H            3.01722192038341        2.92635824091279       -3.30997555339846
H            1.99870520100907        2.54724747834897       -4.81328801404457
C            1.84092500637562        0.96929610124034       -1.74180023069561
O           -2.01431963367628        6.12986629647191       -1.85492875529884
H           -1.89337663312130        6.31569472853435       -0.89886917482116
O            0.80595098536736        0.99726055915445       -1.10509142267263
N            0.42238836650031        0.54484755696702       -3.64994103086558
H            2.47009249930270        0.40399340569692       -3.70012617443454
H           -0.26872958798501        0.86633425067670       -2.97707283505820
H            0.15857458114157        0.88241952185734       -4.56804275588999
N            3.05790791446462        0.87808398660807       -1.08648792043462
C            4.39526471422101        1.23789424636828       -1.60847437458627
H            3.02106477721135        0.92919514888545       -0.07074158733334
C            4.55001899433375        2.73399385028615       -1.72437272145611
O            5.12717482363595        3.34505857052277       -0.85174926066341
O            4.00144811557464        3.37369622338911       -2.88258061213969
H            4.05679229643515        4.39484770197867       -2.80270776706707
C            4.81937983636450        0.51766409023982       -2.89012303578836
H            5.11353973193123        0.92429494882618       -0.83307373515385
C            6.29275183240172        0.58363352118831       -3.11204477989510
H            4.32682623976834        0.97418733252743       -3.75147459603741
H            4.49529255551578       -0.52696359918423       -2.85466889831745
C            7.24720850216562       -0.44812314457288       -2.86675789277530
C            7.13158702479972       -1.77040217209235       -2.40406857474742
C            8.26986049810538       -2.51299795602845       -2.25157238740999
C            9.53391338225287       -1.97530203673639       -2.54443120482812
C            9.67113824777109       -0.68925243897831       -2.99056607171228
C            8.51779237502259        0.08824676526383       -3.15423372618518
H            6.16278045695879       -2.17592897215973       -2.17256966522574
H            8.19829632456273       -3.52806312051023       -1.89755826751354
H           10.41076609267597       -2.58717757139529       -2.41122113847195
H           10.63524673020573       -0.26725989258347       -3.21084036470221
N            8.33595175780562        1.40113854497988       -3.55360567337812
C            6.99562897544567        1.69331512368785       -3.50973757678251
H            9.09099932862886        2.05344728691112       -3.77294312297738
H            6.56281660859219        2.65805149299840       -3.71990136060397
