48
 energy: -9.202595727171 gnorm: 0.000381590900 xtb: 6.6.0 (2ccbbd7)
C           -3.80051533720498        2.79000758924798       -1.69702658495348
C           -2.44938998123669        2.56724998790461       -1.81893715798782
C           -4.66723536197817        1.74266992182018       -1.38314313055072
C           -4.12610856001070        0.47167842220508       -1.19223124518215
C           -2.77438664115427        0.25703983688641       -1.31580736802893
C           -1.91727786656025        1.29875062541200       -1.63766766217425
H           -1.78933766370417        3.38297792981806       -2.05938361529369
H           -4.79386313404706       -0.33459969989556       -0.94645422385758
H           -2.36776687126524       -0.72802662119122       -1.16317628182597
H           -4.20323421715454        3.77612022030294       -1.84367960679797
C           -0.44494484684704        1.06115411352051       -1.74903343684910
C            0.25571951924399        0.96799297399364       -0.39178102106721
H            0.01572061202091        1.86311898593751       -2.33288191989298
H           -0.26441471318984        0.14288750935098       -2.31796749073387
C            1.70358451831027        0.57988541598421       -0.58241417944972
O           -6.03030270613521        1.93048920119730       -1.25825999814714
H           -6.25799122617198        2.87052958030251       -1.42423912247277
O            2.03700237219267       -0.56901962727580       -0.37320735552719
N            0.12172210035748        2.18660762130089        0.39518967431337
H           -0.20753188010195        0.15792307548448        0.19411762791924
H            0.55491828561174        2.96749333018544       -0.07905424832001
H           -0.85443403498446        2.41994653746337        0.52701282352966
N            2.57494910631159        1.53887875265077       -1.03756253077661
C            3.97075399506792        1.24445844655259       -1.32539895225036
H            2.30591788100697        2.52023845051469       -1.11964159322250
C            4.61050253678847        2.41832619110797       -2.04047039439693
O            5.52004217015352        2.97342842385562       -1.46069044462508
O            4.16401190585678        2.77647525386720       -3.26752986945202
H            3.24679649308243        2.33595546266580       -3.73628913706239
C            4.13981196800899       -0.02860298634606       -2.15357767120222
H            4.47173277246900        1.12738186911374       -0.35220256581792
C            3.51116349202458        0.12741373959077       -3.48339023350683
H            3.67883262242672       -0.87286943155866       -1.62997481717753
H            5.20305364702419       -0.25941867160459       -2.27540424347392
C            3.61385890978751       -0.68396824585295       -4.59527590432907
C            4.28034026803254       -1.91914602285996       -4.79680377361959
C            4.15776999739143       -2.54359703775789       -6.00769855480530
C            3.39062815987745       -1.98769253712728       -7.04262501514528
C            2.73694235478212       -0.78419326638040       -6.88710730340353
C            2.84791616640767       -0.10970699226869       -5.67617446416473
H            4.85839132260240       -2.35016156574813       -3.99904350192803
H            4.65618621617740       -3.48471998975980       -6.17068873362038
H            3.31317393106877       -2.51281840483757       -7.98003286039851
H            2.15505538471571       -0.35515252515893       -7.68294118920703
N            2.30358236741741        1.09012525126255       -5.25840937991705
C            2.63462960928614        1.26803131766533       -3.85604628385295
H            1.40036903459338        1.45110529064546       -5.57706818849421
H            2.47773967945580        2.39839884470918       -3.38312266055374
