48
Energy =
C     7.1558593    0.0324647    0.4837870 
C     5.9905571   -0.2246890    1.1300046 
C     7.3874373    1.2644042   -0.0431982 
C     6.4557511    2.2343169    0.0899541 
C     5.2849202    1.9802403    0.7272426 
C     5.0425524    0.7452109    1.2468132 
H     5.8218137   -1.2140921    1.5467956 
H     6.6539447    3.2145529   -0.3326988 
H     4.5390362    2.7703500    0.8049591 
H     7.8995556   -0.7517223    0.3868450 
C     3.7205874    0.4503612    1.9231222 
C     2.6294644   -0.0617244    0.9486254 
H     3.3515861    1.3776565    2.4203807 
H     3.8693064   -0.2842800    2.7442934 
C     2.3569697    0.9190950   -0.1931246 
O     8.5659570    1.5550705   -0.7350750 
H     9.2306772    0.7897083   -0.7491560 
O     1.9340633    2.1997887    0.1344754 
N     2.9361594   -1.4275306    0.4851837 
H     1.6652345   -0.0927582    1.5092315 
H     3.8672630   -1.4499074    0.0070523 
H     3.0059504   -2.0715023    1.3078815 
N     2.2928395    0.5054970   -1.5709638 
C     3.5897132    0.7108150   -2.2638031 
H     1.9643690   -0.4831976   -1.5875128 
C     3.6674433    2.1165454   -2.8500021 
O     2.5431655    2.6859340   -3.4337304 
O     4.8831289    2.7971126   -2.9440190 
H     5.6669110    2.2450292   -2.6304439 
C     3.7738415   -0.3307810   -3.3950021 
H     4.4453236    0.6168524   -1.5571712 
C     4.1355138   -1.6916404   -2.8438700 
H     4.5980164   -0.0130710   -4.0756012 
H     2.8599423   -0.3669019   -4.0279171 
C     3.3358015   -2.7648952   -2.7177588 
C     2.0363578   -2.9362032   -3.0746645 
C     1.4462438   -4.1391398   -2.8179923 
C     2.1545959   -5.1414390   -2.2150034 
C     3.4575102   -4.9468963   -1.8648258 
C     4.0190941   -3.7491747   -2.1300540 
H     1.4684741   -2.1444848   -3.5525057 
H     0.4069958   -4.3020233   -3.0945082 
H     1.6775552   -6.0978073   -2.0140077 
H     4.0343798   -5.7305117   -1.3851275 
N     5.3482318   -3.3423088   -1.8369878 
C     5.3413314   -1.9979014   -2.3326491 
H     6.1164140   -3.8771216   -1.3683831 
H     6.1929281   -1.3194803   -2.2837350 
