48
Energy =
C    -3.3706283   -0.7735479    2.3854984 
C    -2.2054417   -1.0304165    1.7390705 
C    -4.5553470   -1.1510244    1.8347594 
C    -4.5650628   -1.7834381    0.6393337 
C    -3.4028221   -2.0426162   -0.0118370 
C    -2.2142017   -1.6696741    0.5371710 
H    -1.2657299   -0.7210765    2.1899543 
H    -5.5165072   -2.0781611    0.2106540 
H    -3.4329743   -2.5477680   -0.9734627 
H    -3.3518948   -0.2646245    3.3431023 
C    -0.9152739   -1.9387795   -0.1896566 
C    -0.3600870   -0.6763905   -0.8897324 
H    -1.0379914   -2.7575047   -0.9345412 
H    -0.1669414   -2.3119441    0.5454020 
C     1.0270206   -0.9352515   -1.4459835 
O    -5.7743503   -0.9003678    2.4734844 
H    -5.6809677   -0.4255085    3.3647210 
O     1.2486047   -2.0600006   -2.2461421 
N    -1.2623910   -0.2250395   -1.9605074 
H    -0.2517311    0.1381113   -0.1357164 
H    -1.4547515   -1.0197714   -2.6159145 
H    -2.1762088    0.0749162   -1.5474189 
N     2.0574565    0.0602406   -1.2793196 
C     3.3950933   -0.3981653   -1.7168741 
H     1.7640942    0.9124281   -1.8125777 
C     4.4840152    0.4454560   -1.0616043 
O     4.3909332    1.8325143   -1.1001433 
O     5.6283546   -0.1292504   -0.5031050 
H     5.6284355   -1.1364479   -0.5673584 
C     3.5177542   -0.3359671   -3.2618415 
H     3.5465705   -1.4458091   -1.3660445 
C     4.6227147   -1.2383003   -3.7590479 
H     3.6768003    0.7107757   -3.6018098 
H     2.5636745   -0.6584739   -3.7346852 
C     5.9042814   -0.9064540   -3.9805591 
C     6.5303528    0.2922566   -3.8553360 
C     7.8638545    0.3584493   -4.1329963 
C     8.5446652   -0.7604931   -4.5259343 
C     7.8962669   -1.9541113   -4.6407997 
C     6.5766705   -1.9943493   -4.3616491 
H     5.9984173    1.1823967   -3.5309798 
H     8.3892232    1.3054566   -4.0330075 
H     9.6085991   -0.6992981   -4.7405806 
H     8.4233199   -2.8525757   -4.9433547 
N     5.7261695   -3.1320607   -4.3980564 
C     4.4798167   -2.5565676   -3.9842837 
H     5.9521732   -4.1201859   -4.6565271 
H     3.5551863   -3.1163149   -3.8414431 
