48
Energy =
C     2.3136441    4.0548343    4.9320760 
C     2.3310261    3.7032617    3.6216856 
C     1.4441549    3.4560990    5.7890272 
C     0.5973831    2.5078025    5.3277463 
C     0.6100389    2.1519890    4.0181105 
C     1.4756430    2.7513991    3.1552476 
H     3.0352533    4.1894829    2.9507784 
H    -0.0895046    2.0364648    6.0221870 
H    -0.0755132    1.3844931    3.6674977 
H     2.9981503    4.8150703    5.2924020 
C     1.5037510    2.3400690    1.6997407 
C     2.2839226    1.0195776    1.4946441 
H     1.9480896    3.1510155    1.0790588 
H     0.4565533    2.2162500    1.3418205 
C     2.0955469    0.4504514    0.0926365 
O     1.4009831    3.7945390    7.1454765 
H     2.0647241    4.5136943    7.4117774 
O     1.4170975   -0.7519274   -0.0535995 
N     3.7118854    1.1866156    1.8299508 
H     1.8416600    0.2382341    2.1621319 
H     4.0391034    2.1635373    1.6384733 
H     3.8339732    1.0511284    2.8619135 
N     2.3947306    1.1931267   -1.1003586 
C     3.8508148    1.3649329   -1.3281424 
H     1.8640153    2.0929110   -1.0811009 
C     4.3399322    2.7667202   -0.9647003 
O     3.5187243    3.8678015   -1.1749104 
O     5.6191217    2.9832642   -0.4526071 
H     6.1503685    2.1301036   -0.3565743 
C     4.1366911    1.0588374   -2.8123634 
H     4.4449673    0.6540579   -0.7014901 
C     4.1490907   -0.4344458   -3.0738647 
H     5.0994699    1.5152675   -3.1261805 
H     3.3550253    1.5341445   -3.4481643 
C     5.2176689   -1.2042888   -3.3477402 
C     6.5290989   -0.8702481   -3.4793658 
C     7.4268896   -1.8599915   -3.7534101 
C     7.0090973   -3.1547132   -3.8867617 
C     5.6905008   -3.4684385   -3.7458900 
C     4.8206619   -2.4722473   -3.4782737 
H     6.8731223    0.1525263   -3.3695029 
H     8.4814916   -1.6184358   -3.8639211 
H     7.7313594   -3.9381761   -4.1024630 
H     5.3426474   -4.4914049   -3.8421048 
N     3.4203421   -2.5906583   -3.2797065 
C     3.0627760   -1.2269312   -3.0160208 
H     2.8109244   -3.4396839   -3.3244234 
H     2.0599583   -0.8924140   -2.7463762 
