48
Energy =
C    -3.2224733    4.6889060   -1.3008880 
C    -2.3637241    4.2917653   -2.2773286 
C    -3.0102758    4.3178513   -0.0071125 
C    -1.9406874    3.5491598    0.3009653 
C    -1.0885300    3.1561669   -0.6761612 
C    -1.2803888    3.5298416   -1.9656694 
H    -2.5529532    4.5875473   -3.3058460 
H    -1.7774147    3.2530751    1.3311650 
H    -0.1278692    2.4909674   -0.5156459 
H    -4.0808946    5.3001323   -1.5578305 
C    -0.3236471    3.0349477   -3.0465455 
C     1.1720748    3.0030963   -2.5889021 
H    -0.4192688    3.6968207   -3.9350862 
H    -0.6380332    2.0162612   -3.3668927 
C     1.4502965    1.8995248   -1.5649158 
O    -3.8746777    4.7103565    1.0197258 
H    -4.6507985    5.2833023    0.7072404 
O     0.7673702    1.8676742   -0.3473319 
N     2.0744870    2.8716369   -3.7534001 
H     1.4100896    3.9609358   -2.0654437 
H     1.9527627    1.9154967   -4.1792488 
H     1.7325226    3.4871231   -4.5301626 
N     2.1461748    0.7274068   -1.9878471 
C     3.6069849    0.9499069   -2.0692133 
H     1.9532843   -0.0102327   -1.2709690 
C     4.0797264    2.3174760   -2.6338235 
O     3.3305028    3.1693957   -3.4964863 
O     5.3705353    2.7564280   -2.3221885 
H     5.8685580    2.1198053   -1.7188074 
C     4.2383525   -0.2212600   -2.8557146 
H     4.0157597    0.9090937   -1.0332027 
C     3.7059285   -0.3128504   -4.2699201 
H     4.0174986   -1.1759238   -2.3288155 
H     5.3459395   -0.1306930   -2.8732923 
C     4.1912982    0.2968689   -5.3646231 
C     5.2730534    1.1052263   -5.5083415 
C     5.5419744    1.6163438   -6.7440786 
C     4.7357349    1.3153871   -7.8065927 
C     3.6538323    0.5035072   -7.6386805 
C     3.4089329    0.0106372   -6.4067096 
H     5.9096214    1.3564460   -4.6663875 
H     6.3978619    2.2721025   -6.8820338 
H     4.9548091    1.7287950   -8.7874282 
H     3.0004903    0.2583733   -8.4686377 
N     2.3324586   -0.8303210   -6.0187733 
C     2.5969019   -0.9875325   -4.6193092 
H     1.5536843   -1.2184748   -6.5986784 
H     1.9690592   -1.5530985   -3.9347066 
