48
Energy =
C    -0.6210223    4.1372891   -2.3060300 
C    -0.3416092    3.9407008   -0.9932877 
C     0.2889566    4.7389126   -3.1160861 
C     1.4737753    5.1416327   -2.6057683 
C     1.7538255    4.9615729   -1.2895013 
C     0.8485561    4.3538728   -0.4718988 
H    -1.0770590    3.4417779   -0.3677750 
H     2.2031802    5.5915811   -3.2716577 
H     2.7196951    5.2788494   -0.9131596 
H    -1.5720902    3.8052508   -2.7079680 
C     1.1638117    4.1022245    0.9932477 
C     2.2313876    2.9961164    1.2537436 
H     0.2303963    3.8106458    1.5252955 
H     1.4675777    5.0587575    1.4709011 
C     2.1203288    1.7945804    0.3189664 
O     0.0302603    4.9532513   -4.4739259 
H    -0.8743131    4.6143660   -4.7815543 
O     1.7495070    0.5562149    0.8335101 
N     3.6039439    3.5468489    1.2583962 
H     2.0125223    2.5737900    2.2654729 
H     3.6416517    4.5702011    1.0463988 
H     4.0378106    3.4248505    2.2041969 
N     2.3450891    1.9183249   -1.0940002 
C     3.7828328    1.7937541   -1.4369571 
H     1.7670185    1.1794304   -1.5560790 
C     4.1569627    2.8133931   -2.5013148 
O     5.1917049    3.7058572   -2.2537886 
O     3.4871059    2.8952602   -3.7213991 
H     2.6896477    2.2785700   -3.7464489 
C     4.1153612    0.3415152   -1.8632491 
H     4.4346772    2.0667128   -0.5722240 
C     5.6089358    0.1050896   -1.9250761 
H     3.6449733    0.1015869   -2.8413321 
H     3.6752502   -0.3646650   -1.1216878 
C     6.4155269    0.2696066   -2.9866005 
C     6.1219850    0.6507403   -4.2564813 
C     7.1419343    0.7495679   -5.1562956 
C     8.4257726    0.4675876   -4.7794640 
C     8.6975650    0.0868429   -3.4990164 
C     7.6713781   -0.0028835   -2.6268615 
H     5.1062136    0.8852669   -4.5587517 
H     6.9320303    1.0628030   -6.1761487 
H     9.2332986    0.5540783   -5.5018500 
H     9.7107973   -0.1344560   -3.1820204 
N     7.7406238   -0.3685512   -1.2555978 
C     6.3626957   -0.2655340   -0.8747733 
H     8.5724148   -0.6425481   -0.6844915 
H     5.9868802   -0.4476160    0.1297771 
