48
 energy: -9.050830300610 gnorm: 0.000963514484 xtb: 6.6.0 (2ccbbd7)
C            2.03395460825518       -1.05184738466207        2.67521729402541
C            1.72820609458227       -0.33641023799148        1.54288638424159
C            1.05692240522475       -1.30568899051599        3.63812900481073
C           -0.22979678206199       -0.81692380004135        3.41495873051653
C           -0.52519967152168       -0.10380241728561        2.27746554792623
C            0.44833680196314        0.15226348621469        1.32036945073982
H            2.48609995980271       -0.17764381323388        0.79950939978398
H           -0.98513910172957       -1.01441683042191        4.15485558319781
H           -1.52620081044472        0.25998089907278        2.11945032654641
H            3.02982077459430       -1.42819121738575        2.82822987577414
C            0.09872684247285        0.92349014734877        0.07789065598424
C            0.29857588200363        0.14910525710090       -1.25026071668307
H            0.66101805788017        1.86193815765172        0.05571536914705
H           -0.94965027618254        1.23310980730480        0.15842714633701
C            1.58623769380770        0.53749067738144       -2.03940871548436
O            1.32880572281707       -2.02182031735361        4.78848701299149
H            2.27149476254561       -2.29646537110760        4.79819258436277
O            1.74297704268661       -0.38852325576129       -3.15073938525454
N            0.27527999056535       -1.29071845453756       -1.07501406289651
H           -0.54860522434886        0.37725577216587       -1.91676057646171
H            0.48666195050221       -1.71969063460100       -1.97275306840022
H            1.02710738194986       -1.55611685924016       -0.45645117532241
N            2.80514302705165        0.64972195096255       -1.19242933740054
C            4.13101818106076        1.05826439197029       -1.71702133094912
H            2.58066151842383        1.33429539348993       -0.46734682000418
C            4.20973084325728        2.57328281232957       -1.76674604061043
O            4.09669095276475        3.14168830811203       -2.83092312156052
O            4.36583028243088        3.19643528547022       -0.56968152860571
H            4.45515415941736        2.54895800512697        0.16450812977934
C            4.55902310627806        0.40576797891772       -3.03986433988426
H            4.85695575169904        0.73579578660532       -0.95305837308652
C            3.65300495633917        0.67145184687921       -4.18293432933273
H            4.61975747606825       -0.67877440658359       -2.90033337037488
H            5.56572511899839        0.74732839148028       -3.30302743991967
C            2.15264899932050        0.70066061235361       -4.02301669557171
C            1.45601068162736        1.72576673748335       -3.05870600167782
C            0.06541733840039        2.08736691037661       -3.49141122528793
C           -0.42000012219244        1.80824074570156       -4.70770574191000
C            0.37300504254381        1.18116198072752       -5.72867197876239
C            1.60000461745077        0.70266610626377       -5.42937824508181
H            2.09054318061184        2.59036331716038       -2.83292773270136
H           -0.56355642621509        2.58295582364511       -2.77105581654584
H           -1.42706381088858        2.10078166738170       -4.95529327630809
H            0.04515921410808        1.19767593461445       -6.75311034476059
N            2.70642703199272        0.47274617254611       -6.24176564601039
C            3.90344450908259        0.48646858919118       -5.49499291708354
H            2.68674480654654        0.63414329907086       -7.24862919450587
H            4.87819782206613        0.30666882053823       -5.91641194212100
