48
Energy =
C     6.2731746   -2.1607732    0.2560187 
C     4.9517762   -2.1281088    0.5634456 
C     7.0545896   -1.0715975    0.4830912 
C     6.5093030    0.0405683    1.0246958 
C     5.1881335    0.0785574    1.3336461 
C     4.3978599   -1.0036724    1.0954265 
H     4.3402154   -3.0069107    0.3760251 
H     7.1463176    0.8993933    1.2066754 
H     4.7675961    0.9835792    1.7683297 
H     6.7026641   -3.0599421   -0.1722757 
C     2.9149051   -0.9493589    1.4056698 
C     2.0579080   -0.3946790    0.2374224 
H     2.7525229   -0.3128693    2.3060218 
H     2.5487351   -1.9603561    1.6883658 
C     2.4615295    1.0293303   -0.1503823 
O     8.4168077   -1.0680678    0.1672020 
H     8.7535101   -1.9470812   -0.2098904 
O     2.4690693    2.0021104    0.8430019 
N     2.0487209   -1.3371621   -0.8955184 
H     1.0119964   -0.2843027    0.6076939 
H     3.0285384   -1.5237121   -1.2052988 
H     1.6471077   -2.2518516   -0.5811945 
N     2.7094791    1.4494475   -1.5076502 
C     4.0921645    1.9783139   -1.6738427 
H     2.4761898    0.6740260   -2.1639475 
C     4.1010332    3.4768531   -1.9678807 
O     5.2476715    4.0481771   -2.5077185 
O     3.0439472    4.3225107   -1.6387985 
H     2.3338944    3.8451649   -1.1010291 
C     4.8891546    1.1631825   -2.7333017 
H     4.6741447    1.9186863   -0.7243493 
C     4.2397811    1.1396510   -4.1096520 
H     5.0359247    0.1348330   -2.3440735 
H     5.9147975    1.5870768   -2.8370617 
C     3.6836522    0.0802050   -4.7274640 
C     3.5622250   -1.2104070   -4.3177420 
C     2.9456592   -2.1012443   -5.1460408 
C     2.4687363   -1.6982276   -6.3616790 
C     2.6083596   -0.4021915   -6.7579212 
C     3.2199761    0.4608809   -5.9202910 
H     3.9473817   -1.5449704   -3.3628789 
H     2.8347578   -3.1385798   -4.8390342 
H     1.9789054   -2.4144683   -7.0169410 
H     2.2398805   -0.0661846   -7.7214509 
N     3.4710569    1.8379624   -6.1488786 
C     4.1388059    2.2015859   -4.9333401 
H     3.2392819    2.4282001   -6.9813039 
H     4.5161781    3.2011789   -4.7236691 
