48
Energy =
C    -0.6203040    6.7027079   -4.6770629 
C    -0.4357211    5.7170151   -3.7623637 
C     0.4510082    7.3016656   -5.2634318 
C     1.7017075    6.9085931   -4.9306880 
C     1.8925722    5.9247347   -4.0165717 
C     0.8229428    5.3248010   -3.4237307 
H    -1.3022276    5.2442457   -3.3068927 
H     2.5492508    7.3898063   -5.4069968 
H     2.9080473    5.6188299   -3.7664166 
H    -1.6267974    7.0099489   -4.9401228 
C     1.0396180    4.2170894   -2.4182079 
C     1.4144103    2.8795339   -3.1010590 
H     0.1494297    4.0759091   -1.7670431 
H     1.8631678    4.5259059   -1.7327554 
C     2.0252233    1.8886630   -2.1122288 
O     0.2940749    8.3198245   -6.2093151 
H    -0.6720872    8.5570369   -6.4056879 
O     1.9199230    2.1326937   -0.7445073 
N     0.2435407    2.2864750   -3.7648868 
H     2.2036186    3.0809949   -3.8658618 
H    -0.5268883    2.1402263   -3.0691121 
H    -0.1117051    2.9334564   -4.5075002 
N     2.9981063    0.9256135   -2.5580908 
C     4.3728485    1.3695658   -2.2289550 
H     2.8902902    0.8090440   -3.5925396 
C     4.6949321    2.7485504   -2.8080943 
O     5.0193084    2.8733026   -4.1514916 
O     4.5367698    3.9117330   -2.0540819 
H     4.2799210    3.7073015   -1.0976604 
C     5.3841833    0.3092662   -2.7185507 
H     4.4752238    1.4469789   -1.1211052 
C     5.2415583   -0.9889203   -1.9541755 
H     6.4224303    0.6900628   -2.5869169 
H     5.2628952    0.1364263   -3.8100691 
C     4.4981697   -2.0552119   -2.2934214 
C     3.7252047   -2.2691102   -3.3895963 
C     3.0605270   -3.4557503   -3.4936092 
C     3.1767227   -4.4008516   -2.5122213 
C     3.9581554   -4.1646717   -1.4204490 
C     4.6059763   -2.9833622   -1.3407105 
H     3.6283719   -1.5203149   -4.1682320 
H     2.4328919   -3.6494961   -4.3600915 
H     2.6420660   -5.3430983   -2.6011210 
H     4.0591403   -4.9018708   -0.6314313 
N     5.4578382   -2.5416518   -0.2931974 
C     5.8207644   -1.2383327   -0.7663438 
H     5.7438375   -3.0373634    0.5818271 
H     6.4622527   -0.5458509   -0.2263179 
