48
Energy =
C    -1.5479428    2.1111808    0.5896106 
C    -0.7859278    2.9783758   -0.1239114 
C    -2.6775992    1.5863771    0.0461958 
C    -3.0401785    1.9361859   -1.2074558 
C    -2.2831934    2.8024387   -1.9256310 
C    -1.1408896    3.3245423   -1.3935770 
H     0.1032740    3.3958888    0.3389613 
H    -3.9464149    1.5143837   -1.6280197 
H    -2.6001748    3.0724665   -2.9293839 
H    -1.2524089    1.8416267    1.5982199 
C    -0.2931789    4.2991603   -2.1969698 
C     0.9478288    3.6629630   -2.8855821 
H     0.0432432    5.1226211   -1.5252547 
H    -0.9139957    4.7902990   -2.9781628 
C     1.9857623    3.1524762   -1.8997328 
O    -3.4850643    0.6910529    0.7539685 
H    -3.1446902    0.4750129    1.6849973 
O     2.2620257    3.9115184   -0.7658911 
N     0.5659903    2.6167199   -3.8602297 
H     1.4886440    4.4829747   -3.4210881 
H    -0.4296256    2.3145410   -3.7849349 
H     0.7082326    2.9744149   -4.8363438 
N     2.9883099    2.2337716   -2.3506535 
C     4.2904163    2.8125763   -2.7342093 
H     2.7846529    1.2105803   -2.3090630 
C     4.1709264    3.6601865   -3.9973359 
O     4.6381181    4.9674821   -3.9859798 
O     3.5698021    3.1750034   -5.1595736 
H     3.2336620    2.2317163   -5.0258032 
C     5.3209902    1.6744034   -2.8902272 
H     4.6395584    3.5017410   -1.9281792 
C     6.7281733    2.2095239   -3.0510346 
H     5.0518662    1.0236636   -3.7502931 
H     5.2886480    1.0281455   -1.9850046 
C     7.3655198    2.4896536   -4.1999504 
C     6.9496645    2.3537240   -5.4855313 
C     7.8003445    2.7235891   -6.4851316 
C     9.0407825    3.2172649   -6.1896669 
C     9.4371096    3.3462536   -4.8917151 
C     8.5772576    2.9738455   -3.9202366 
H     5.9613699    1.9734901   -5.7250188 
H     7.4848310    2.6330126   -7.5215619 
H     9.7102073    3.5147800   -6.9925298 
H    10.4146926    3.7422999   -4.6397587 
N     8.7894163    3.0375004   -2.5166768 
C     7.5402466    2.5313134   -2.0284635 
H     9.6317930    3.3597950   -1.9879409 
H     7.2833501    2.4390322   -0.9758864 
