48
Energy =
C    -0.4701871    6.6007169   -0.1077822 
C    -0.1001502    5.6220980    0.7606514 
C    -0.2808415    6.4366247   -1.4471132 
C     0.2802194    5.2957164   -1.9080577 
C     0.6476317    4.3251719   -1.0374227 
C     0.4507789    4.4686529    0.2943203 
H    -0.2446393    5.7720019    1.8274986 
H     0.4300274    5.1722797   -2.9743174 
H     1.1298747    3.2914388   -1.3323355 
H    -0.9126839    7.5154436    0.2718832 
C     0.9259061    3.3769354    1.2437206 
C     0.6722898    1.9256827    0.7290383 
H     0.4136999    3.4981448    2.2236531 
H     2.0136796    3.5202962    1.4354329 
C     1.5567358    1.5361284   -0.4725995 
O    -0.6520688    7.4216510   -2.3674524 
H    -1.0581487    8.2484566   -1.9426538 
O     1.5822691    2.3287656   -1.6235278 
N     0.8285093    0.9811608    1.8484683 
H    -0.3752715    1.8539941    0.3512348 
H     1.7451140    1.1378703    2.3326394 
H     0.0760816    1.1439761    2.5586869 
N     2.1862478    0.2512027   -0.5394978 
C     3.5894512    0.2147066   -0.0244179 
H     2.1225186   -0.0405452   -1.5396031 
C     4.1142324    1.5163018    0.6061864 
O     4.3631170    1.5570585    1.9730806 
O     4.3686101    2.6629674   -0.1475809 
H     4.1170052    2.5341838   -1.1171541 
C     4.5732999   -0.3166467   -1.1022679 
H     3.5966053   -0.5101895    0.8209223 
C     4.2873711   -1.7573714   -1.4741866 
H     5.6166750   -0.2678997   -0.7139142 
H     4.5484380    0.3374044   -1.9986470 
C     3.7263825   -2.2143482   -2.6077597 
C     3.2856736   -1.5393371   -3.7024013 
C     2.7452874   -2.2535263   -4.7312033 
C     2.6544924   -3.6154145   -4.6542260 
C     3.1037094   -4.2722226   -3.5477637 
C     3.6342768   -3.5444379   -2.5428385 
H     3.3533594   -0.4584816   -3.7714341 
H     2.3842876   -1.7370893   -5.6175475 
H     2.2221119   -4.1774106   -5.4782630 
H     3.0385620   -5.3522287   -3.4704418 
N     4.1530743   -4.0319656   -1.3140849 
C     4.5534789   -2.8104727   -0.6810391 
H     4.2244177   -5.0164000   -0.9684006 
H     5.0048410   -2.7505599    0.3068055 
