48
Energy =
C    -3.0078502    2.2928139    0.0169189 
C    -1.7580332    1.7827290    0.1579496 
C    -4.0402686    1.4829311   -0.3403099 
C    -3.8137105    0.1670023   -0.5552217 
C    -2.5658693   -0.3481203   -0.4163182 
C    -1.5300282    0.4575905   -0.0548770 
H    -0.9410212    2.4415996    0.4405953 
H    -4.6445450   -0.4681499   -0.8418986 
H    -2.4030961   -1.4069870   -0.5992253 
H    -3.1790715    3.3498703    0.1889122 
C    -0.1334414   -0.1057399    0.0858211 
C     0.7627563    0.2401290   -1.1269943 
H    -0.1626691   -1.2107897    0.2227569 
H     0.3206557    0.3017739    1.0165239 
C     2.2065443   -0.1414441   -0.8540147 
O    -5.3400600    1.9764771   -0.4942435 
H    -5.4255429    2.9717624   -0.3200662 
O     2.5795065   -1.4828459   -0.8480263 
N     0.2707814   -0.4233244   -2.3461476 
H     0.7627510    1.3427557   -1.2911420 
H     0.1959560   -1.4555461   -2.1807779 
H    -0.6824205   -0.0654128   -2.5869075 
N     3.0981996    0.8076485   -0.2498231 
C     4.2052450    1.3575197   -1.0561826 
H     2.9413443    1.0853571    0.7446531 
C     3.7299619    2.4812695   -1.9768807 
O     2.6503793    2.2685526   -2.8249910 
O     4.3947698    3.7070467   -2.0464586 
H     5.2132856    3.7389734   -1.4569573 
C     4.9305684    0.2318487   -1.8295210 
H     4.9355938    1.7988365   -0.3428059 
C     6.2258305    0.7145606   -2.4430726 
H     4.2641450   -0.2024231   -2.6093560 
H     5.1464453   -0.6049213   -1.1266774 
C     6.3996302    1.2300050   -3.6715900 
C     5.5029553    1.4233139   -4.6734515 
C     5.9421288    1.9828949   -5.8371640 
C     7.2551325    2.3363619   -5.9819092 
C     8.1372054    2.1342167   -4.9623986 
C     7.6787632    1.5791967   -3.8207992 
H     4.4566649    1.1532494   -4.5625941 
H     5.2416450    2.1543975   -6.6514642 
H     7.5957410    2.7852136   -6.9117601 
H     9.1808288    2.4137332   -5.0590270 
N     8.4230061    1.2982211   -2.6437910 
C     7.4058315    0.7460173   -1.7996473 
H     9.4382067    1.4551160   -2.4476698 
H     7.5715047    0.4125954   -0.7776828 
