48
Energy =
C     1.0206652   -1.7244588    2.7613333 
C     1.1527625   -0.4085290    2.4512637 
C    -0.2069925   -2.3082417    2.7513170 
C    -1.2946008   -1.5713966    2.4311532 
C    -1.1676895   -0.2565647    2.1197285 
C     0.0591456    0.3344473    2.1273348 
H     2.1394762    0.0509507    2.4603193 
H    -2.2684395   -2.0489911    2.4264523 
H    -2.0543614    0.3166556    1.8622261 
H     1.8979764   -2.3097729    3.0159839 
C     0.2043445    1.8006834    1.7676391 
C     0.5523372    2.0468646    0.2758808 
H     0.9865034    2.2692079    2.4070557 
H    -0.7347979    2.3443130    2.0111625 
C     1.9548112    1.5830725   -0.1054567 
O    -0.3776740   -3.6599900    3.0652520 
H     0.4839649   -4.1448518    3.2904629 
O     2.9635105    1.5872196    0.8607737 
N    -0.4784576    1.4698867   -0.6045865 
H     0.5696639    3.1480314    0.1123738 
H    -0.4629472    0.4247240   -0.5386578 
H    -1.4262343    1.7987105   -0.3074818 
N     2.3292390    1.5038490   -1.4911240 
C     3.7508717    1.6932653   -1.8321952 
H     1.5907246    1.3731089   -2.2212972 
C     3.9104878    2.3183387   -3.2145628 
O     3.2247892    1.7785404   -4.2969206 
O     4.7982906    3.3705333   -3.4505614 
H     5.2919670    3.6611368   -2.6207719 
C     4.4557355    0.3253683   -1.7497396 
H     4.2125365    2.3986786   -1.1039535 
C     5.9597694    0.4691568   -1.7992546 
H     4.0881115   -0.3432990   -2.5591429 
H     4.1757069   -0.1674572   -0.7917320 
C     6.7458614    0.4230698   -2.8870651 
C     6.4241345    0.2111204   -4.1892664 
C     7.4256263    0.2253053   -5.1147335 
C     8.7188654    0.4484613   -4.7305489 
C     9.0183789    0.6616205   -3.4178169 
C     8.0102492    0.6425170   -2.5206746 
H     5.3972129    0.0448599   -4.5022628 
H     7.1912803    0.0660952   -6.1647654 
H     9.5100304    0.4626476   -5.4760526 
H    10.0380588    0.8470575   -3.0977147 
N     8.1046899    0.8566924   -1.1189791 
C     6.7304471    0.7344522   -0.7298884 
H     8.9489391    1.0510989   -0.5329484 
H     6.3627197    0.8607663    0.2870991 
