48
 energy: -9.287346742392 gnorm: 0.000995313078 xtb: 6.6.0 (2ccbbd7)
C           -3.07757550145590        0.46867683238634        2.69369399219708
C           -1.74944270400322        0.41359201827077        2.34276689588151
C           -3.80836703168550        1.64496723930504        2.52539122608872
C           -3.15683804056447        2.75654251979685        1.99204148086968
C           -1.82925667847757        2.69328250987805        1.64211458978524
C           -1.10444666822528        1.52366280371621        1.81631071533762
H           -1.19624036945428       -0.50080470372605        2.47227640407981
H           -3.72066902043984        3.66248841492600        1.85962754537353
H           -1.33919262618639        3.55578487561102        1.22425934633428
H           -3.56740490219485       -0.39769150686551        3.10060387840317
C            0.32754871869358        1.44638489231361        1.38845884123459
C            0.49321328566060        1.23070278879552       -0.11750793986850
H            0.83020406700925        0.62889798113949        1.91382515875145
H            0.85401461969483        2.35711871793504        1.69185161056883
C            1.95610281710283        1.18111185419488       -0.48002347542604
O           -5.14452668121131        1.73309635826213        2.86745543831414
H           -5.45887615684933        0.87499495721505        3.22573981825419
O            2.67356997439973        0.39511099617933        0.10226971243555
N           -0.14420801075422        0.00683653579597       -0.57315350350504
H            0.02640407042503        2.06994763160652       -0.65519923136404
H            0.37310374337396       -0.78022298453232       -0.20478262500258
H           -1.09224558572862       -0.05326362785952       -0.22417379524842
N            2.41289871987055        2.01610252817697       -1.47485801528423
C            3.75982730389344        1.86824873827818       -1.99756410336711
H            1.76582507071185        2.47472484952888       -2.11805065936251
C            3.99783811394689        2.91193771137438       -3.06835126405723
O            3.36854268385592        2.79871929092466       -4.09815305463009
O            4.90094039506309        3.89258042536600       -2.81113047887787
H            5.27321801389049        3.80951667814264       -1.90656821093318
C            3.98139550268949        0.45833083380193       -2.54233020328485
H            4.44614375140111        2.03607348328828       -1.15699558407076
C            5.40266997230649        0.14641704027609       -2.87552822583070
H            3.35486362938513        0.32439350168344       -3.42914862140060
H            3.62063111192332       -0.26161366218098       -1.80011573808907
C            6.13946899985584        0.58022556512304       -4.01888320162988
C            5.82049965122053        1.40430327340616       -5.11227964821711
C            6.76854552988860        1.62344062974970       -6.07174973936555
C            8.04367694859449        1.04376828232747       -5.97679212702359
C            8.38232663825270        0.24783660020328       -4.91685552809661
C            7.42420466867819        0.01166252521871       -3.92286839866489
H            4.86134077025309        1.88961315690965       -5.15024395448911
H            6.53898151219440        2.26234448813271       -6.90847289219273
H            8.76922291486753        1.23761601793786       -6.74936260402556
H            9.35848318134919       -0.19482604460133       -4.83282491405955
N            7.46676830899071       -0.72508082182796       -2.75261382235739
C            6.24811757167244       -0.63564085721459       -2.12783561612233
H            8.27882987813118       -1.25142208460584       -2.42535474619331
H            5.99313296643099       -1.11881884630837       -1.19830347765199
