48
Energy =
C    -2.2534219   -2.3856708   -3.5944808 
C    -0.9635751   -2.6436895   -3.2606743 
C    -2.5983065   -1.1725775   -4.1012942 
C    -1.6492873   -0.2249513   -4.2676423 
C    -0.3583660   -0.4794853   -3.9381719 
C    -0.0029266   -1.6915176   -3.4316571 
H    -0.7075605   -3.6192723   -2.8562437 
H    -1.9367079    0.7430468   -4.6634731 
H     0.3801324    0.3021221   -4.0714557 
H    -3.0081313   -3.1522652   -3.4552433 
C     1.4393990   -1.9939845   -3.0594276 
C     1.8623370   -1.5294680   -1.6426269 
H     2.2494908   -1.5483108   -3.8699063 
H     1.6001257   -3.0938893   -3.1215760 
C     2.0918180   -0.0174673   -1.5407020 
O    -3.9169932   -0.8755257   -4.4594158 
H    -4.5708545   -1.6318892   -4.2901482 
O     1.0242145    0.8480398   -1.7427276 
N     0.9265671   -2.0099818   -0.6132218 
H     2.8497024   -2.0054213   -1.4495598 
H     0.0110238   -1.5042551   -0.7033351 
H     0.7384120   -3.0311457   -0.7437806 
N     3.2733352    0.5072988   -0.9035958 
C     4.2250422    1.1880388   -1.8190220 
H     3.7537416   -0.2525901   -0.3702516 
C     3.8757545    2.6421566   -2.1432529 
O     4.6962196    3.3302900   -3.0298732 
O     2.8438716    3.3487224   -1.5303288 
H     2.3357851    2.7833078   -0.8669525 
C     4.6277922    0.3319664   -3.0593130 
H     5.1694287    1.3162522   -1.2417320 
C     3.5969892    0.2073400   -4.1702116 
H     4.9103141   -0.6796415   -2.7003328 
H     5.5490457    0.7667598   -3.5117167 
C     3.0479725   -1.0998741   -4.6815103 
C     4.0816715   -2.1647252   -4.9981629 
C     4.0628995   -2.7987580   -6.1882035 
C     3.2468398   -2.4000864   -7.1924800 
C     2.4575778   -1.3063311   -7.0895738 
C     2.3521967   -0.6359161   -5.9293034 
H     4.7598891   -2.5073065   -4.2224333 
H     4.7437483   -3.6300057   -6.3568547 
H     3.3046178   -2.9154783   -8.1481627 
H     1.9825908   -0.9057286   -7.9794415 
N     2.2027080    0.7771100   -5.9183033 
C     3.0890033    1.2225274   -4.8876924 
H     1.5868239    1.3623555   -6.5290706 
H     3.3665452    2.2657448   -4.7665964 
