48
Energy =
C     0.0457736    5.3447508   -0.9528931 
C     0.6158930    4.6363646   -1.9615778 
C    -1.1781668    5.9110368   -1.1225485 
C    -1.8257043    5.7615495   -2.2999005 
C    -1.2623833    5.0522835   -3.3105436 
C    -0.0351227    4.4843673   -3.1482188 
H     1.5874628    4.1677522   -1.8040032 
H    -2.8026433    6.2163535   -2.4209338 
H    -1.8031170    4.9434691   -4.2466087 
H     0.5675851    5.4509519   -0.0077888 
C     0.5987630    3.6967815   -4.2783894 
C     0.3612515    2.1626844   -4.2000344 
H     1.6882760    3.9202744   -4.3197799 
H     0.2089706    4.0662752   -5.2519222 
C     1.0831047    1.4904035   -3.0360400 
O    -1.7918297    6.6498966   -0.1057501 
H    -1.2513394    6.6989885    0.7509553 
O     0.7056359    1.7412344   -1.7222844 
N    -1.0782081    1.8472183   -4.1999865 
H     0.8109319    1.7125172   -5.1150918 
H    -1.4930686    2.1179561   -3.2732504 
H    -1.5759609    2.3936773   -4.9405598 
N     2.2729192    0.7274105   -3.2671317 
C     3.5269537    1.3043421   -2.7511885 
H     2.2119645   -0.1591527   -3.8156737 
C     3.8678571    2.6018934   -3.4690971 
O     3.9865630    3.7753936   -2.7357956 
O     3.9435996    2.6752630   -4.8608379 
H     3.8396486    1.7640470   -5.2832752 
C     4.6524435    0.2533716   -2.8554537 
H     3.3858155    1.5664702   -1.6745174 
C     5.8942307    0.6910456   -2.1081159 
H     4.8934233    0.0371968   -3.9183170 
H     4.2941140   -0.7041451   -2.4144904 
C     6.9432010    1.3708635   -2.6003358 
C     7.1845094    1.8121471   -3.8617929 
C     8.3403844    2.4955170   -4.1000154 
C     9.2289640    2.7250280   -3.0864027 
C     8.9657821    2.2738749   -1.8272484 
C     7.8153571    1.6002703   -1.6165482 
H     6.4784710    1.6406693   -4.6679863 
H     8.5515485    2.8653509   -5.1004081 
H    10.1458068    3.2744183   -3.2841384 
H     9.6569950    2.4524365   -1.0107702 
N     7.3503230    1.0610389   -0.3871169 
C     6.0966713    0.4966699   -0.7927886 
H     7.8037540    1.0711551    0.5550851 
H     5.4010240   -0.0025256   -0.1219154 
