48
Energy =
C     0.4290650    4.7013252    1.3997935 
C     0.3161349    3.4046987    1.7829284 
C     1.6303374    5.1924644    0.9950273 
C     2.7103930    4.3800621    0.9702206 
C     2.6051352    3.0830866    1.3597403 
C     1.4061092    2.5887688    1.7749677 
H    -0.6530512    3.0256025    2.0976968 
H     3.6575716    4.7834701    0.6246403 
H     3.4837794    2.4433267    1.3249499 
H    -0.4441553    5.3446568    1.4171820 
C     1.2674430    1.1380890    2.1857793 
C     0.8673328    0.2422689    0.9906732 
H     0.5014059    1.0626357    2.9886992 
H     2.2147620    0.7641324    2.6379333 
C     2.0454897    0.0121271    0.0543438 
O     1.7811278    6.5259714    0.6029564 
H     0.9222216    7.0642075    0.6257061 
O     3.1026466   -0.7869065    0.4903168 
N     0.3334535   -1.0382287    1.4793780 
H     0.0669617    0.7444942    0.3997945 
H     1.0625177   -1.5304735    2.0513721 
H    -0.4975024   -0.8719950    2.0936815 
N     2.2478399    0.8902858   -1.0684719 
C     3.6316060    1.0961604   -1.5411836 
H     1.4323623    1.3990924   -1.4785861 
C     3.8860107    2.5536000   -1.8982163 
O     4.8559325    3.2591680   -1.1965414 
O     3.1575012    3.2194727   -2.8842752 
H     2.4573685    2.6239432   -3.2977976 
C     3.9023964    0.1312509   -2.7133030 
H     4.3594407    0.8812558   -0.7219096 
C     5.3810947    0.0253973   -3.0145389 
H     3.3342864    0.4300322   -3.6191725 
H     3.5262297   -0.8800423   -2.4340226 
C     6.0867846    0.7509614   -3.8973396 
C     5.6788157    1.7203929   -4.7561113 
C     6.6122700    2.3175372   -5.5510905 
C     7.9248633    1.9412766   -5.4780968 
C     8.3122398    0.9661451   -4.6077912 
C     7.3699832    0.3902342   -3.8318348 
H     4.6399878    2.0284883   -4.8126789 
H     6.3105983    3.1020115   -6.2409783 
H     8.6630714    2.4258228   -6.1120222 
H     9.3500247    0.6601293   -4.5327269 
N     7.5642711   -0.6261146   -2.8582721 
C     6.2273329   -0.7980522   -2.3708321 
H     8.4439884   -1.1164983   -2.5773535 
H     5.9446255   -1.4839413   -1.5739200 
