48
 energy: -8.712497506042 gnorm: 0.000593644863 xtb: 6.6.0 (2ccbbd7)
C            4.46163659170277        0.21751063453354       -5.53046021940133
C            3.74395106288221       -0.21032548204473       -4.30476332661438
C            3.77945920670932        0.60763030701774       -6.64964898718553
C            2.37001245734580        0.48321447321760       -6.66658087981172
C            1.67575659679543       -0.13063095466832       -5.62111922679620
C            2.29797424045747       -0.54349053858706       -4.48259716746778
H            4.36597648080773       -0.68325473796127       -3.33234326244128
H            1.85000244668510        0.80824519879529       -7.54945590199528
H            0.62402390016760       -0.32883788090175       -5.73853341153992
H            5.53305358752786        0.29128092365552       -5.51660293746743
C            1.55729601786193       -1.42048781769880       -3.51540702254223
C            2.05670162047598       -1.43635270847459       -2.06465986035308
H            1.55580842110519       -2.44267390518472       -3.90678902862052
H            0.50826111805646       -1.10866127831133       -3.49356330920469
C            1.85567600791671       -0.08438364008138       -1.41529111027737
O            4.42399287120818        1.10043181350211       -7.76906624018356
H            5.38933614478281        1.15991470675777       -7.60199963971445
O            0.73819387573253        0.39137338572884       -1.48654661221575
N            1.34007834542874       -2.42475588807007       -1.26922226034445
H            3.11692791321217       -1.71142861546325       -2.03233146589614
H            0.39915917434919       -2.08861311579292       -1.11204897994664
H            1.28036883663531       -3.31229103806043       -1.75321997412272
N            2.89090900019680        0.59288230346031       -0.73766131919593
C            4.01957198532189        1.24737682033321       -1.44963611641306
H            2.55734003774249        1.28557021613220       -0.06850652229972
C            3.52326719547704        2.51439376327060       -2.09367128211076
O            4.31799256861596        3.62586747033555       -2.05591492564276
O            2.28333114381813        2.53139307563210       -2.69922358211240
H            1.69001228999497        1.84508838355619       -2.30020760303132
C            4.73837359519130        0.26882486327815       -2.44284745025437
H            4.75516851023203        1.53431773939388       -0.68334742288308
C            6.17274786215526        0.59004197192332       -2.80285705129092
H            3.93187866974914        0.66228310910987       -3.42852794811754
H            4.78789583453163       -0.67041042818303       -1.83070823763625
C            6.89930779835154        1.81839101677093       -2.84694323745513
C            6.55731969190680        3.14489032720306       -2.55648749773094
C            7.48806716180305        4.13232829561114       -2.68246433370189
C            8.79699127324537        3.84456225614704       -3.09937164037132
C            9.17101727866486        2.56434373729407       -3.39969580764437
C            8.22158357175929        1.54292748836766       -3.27690659058882
H            5.39759250512060        3.40039839179133       -2.26512030032508
H            7.20942181814934        5.15019158704061       -2.46606868869868
H            9.51230010316022        4.64542796925359       -3.18772772788126
H           10.16895940711365        2.32940661894557       -3.72359291055565
N            8.29852067454876        0.17236463990973       -3.50540797014790
C            7.06726625983967       -0.36506217658776       -3.21105725721153
H            9.13100488283879       -0.32898524488144       -3.81929494212492
H            6.83963378770042       -1.41568177379883       -3.29895065015591
