48
Energy =
C     0.6264462   -2.2551932    1.8859017 
C     0.3485956   -0.9478261    2.1243659 
C     1.9159150   -2.6667401    1.7537185 
C     2.9190720   -1.7689221    1.8711773 
C     2.6472923   -0.4617121    2.1001626 
C     1.3579055   -0.0388761    2.2236167 
H    -0.6865612   -0.6336039    2.2294623 
H     3.9442723   -2.1074289    1.7724535 
H     3.4704765    0.2434053    2.1807429 
H    -0.1852002   -2.9696906    1.7983848 
C     1.0548151    1.4298611    2.4528521 
C     0.8253072    2.2267048    1.1430140 
H     1.8999215    1.8977300    3.0074262 
H     0.1705216    1.5359491    3.1183876 
C     1.9629612    2.0493443    0.1442368 
O     2.2377204   -4.0022461    1.4932245 
H     1.4316300   -4.6150953    1.4305654 
O     3.2729955    2.2980277    0.5429336 
N    -0.4909010    1.9127057    0.5607641 
H     0.8357310    3.3101184    1.4006784 
H    -0.5454617    0.9000045    0.3048453 
H    -1.2454234    2.1081562    1.2599129 
N     1.7070837    1.7726111   -1.2387646 
C     2.2289622    2.7385149   -2.2231927 
H     1.1173137    0.9526807   -1.5075638 
C     1.1519904    3.2339051   -3.1863811 
O     1.5264947    3.7086367   -4.4383409 
O    -0.1884775    3.3449774   -2.8179864 
H    -0.3466892    3.0586291   -1.8625765 
C     3.4369710    2.1006098   -2.9471095 
H     2.5846533    3.6664508   -1.7168451 
C     3.0731155    0.8281977   -3.6882745 
H     4.2330132    1.8881399   -2.2006958 
H     3.8744864    2.8322291   -3.6631870 
C     3.1024163   -0.4268934   -3.2071363 
C     3.4685564   -0.8857468   -1.9813175 
C     3.3998959   -2.2279499   -1.7451290 
C     2.9675421   -3.0807829   -2.7214828 
C     2.6027913   -2.5983313   -3.9424849 
C     2.6830183   -1.2682897   -4.1546336 
H     3.8028431   -0.2094116   -1.1993674 
H     3.6888284   -2.6265026   -0.7766390 
H     2.9134396   -4.1481789   -2.5215807 
H     2.2551346   -3.2611578   -4.7275364 
N     2.3450764   -0.5697810   -5.3435594 
C     2.6218967    0.7828959   -4.9552934 
H     1.9950358   -0.9416775   -6.2564534 
H     2.4664267    1.6512852   -5.5948191 
