48
 energy: -9.201950348224 gnorm: 0.000865655614 xtb: 6.6.0 (2ccbbd7)
C            1.82346426869224        3.55239399676188       -7.63990188576742
C            1.30140998426992        3.05139299221219       -6.47096885463192
C            3.16530317328382        3.92850707984191       -7.71521093786694
C            3.95782230436239        3.78281614609114       -6.57670622573041
C            3.42898165549160        3.28268283588827       -5.41171201756080
C            2.09334225412958        2.91297228924319       -5.33995818573927
H            0.26588624883089        2.76083329226898       -6.42420633568400
H            4.99197163808284        4.07247515871015       -6.63412194912167
H            4.05107751623283        3.17694089198715       -4.53862316113240
H            1.20095891228275        3.65885055810506       -8.51025929576243
C            1.54415589919442        2.32724301585107       -4.08527269294936
C            1.93022364410411        0.87431008124843       -3.86761852750766
H            0.46504056440963        2.46328089709814       -4.00614574799381
H            2.07186181638492        2.90177909149316       -3.11255222931246
C            1.49352318939775        0.45560617761908       -2.48768908348564
O            3.72024461318435        4.43419726297445       -8.87534426663527
H            3.03997556001781        4.48013458689833       -9.58160974008319
O            0.40312465663863       -0.06993295836505       -2.38402139890355
N            1.36340053051198       -0.04288066227676       -4.84543061116389
H            3.01982694963257        0.79350595715757       -3.95231035625627
H            0.40361532791045       -0.23178015572457       -4.57008882168021
H            1.35336309290663        0.38216489628091       -5.76388585254769
N            2.28706152894661        0.70177214802778       -1.38750402939293
C            3.70128884793127        1.13305816634804       -1.39936421353596
H            1.95408439110317        0.36337528767641       -0.48630934398821
C            3.90289565885536        2.52406999243257       -1.96405874809583
O            5.03474231693078        2.92872238516019       -2.12443003753459
O            2.75013342135671        3.34511239430679       -2.28342093378654
H            3.05057464354936        4.29747449282427       -2.51632221535298
C            4.63223498056375        0.10625990371603       -2.06237170157212
H            3.99889861576437        1.20192934465676       -0.34078824427235
C            4.26277697979243       -1.30286678899010       -1.74713810001553
H            5.66771749102563        0.29795901951320       -1.76116353935602
H            4.63616883281798        0.24025368917792       -3.14598534110223
C            4.75329178107619       -2.09392042803174       -0.66673139616326
C            5.70674859983062       -1.85589039524990        0.33796596078045
C            5.94512442381546       -2.83703227911059        1.26037234528073
C            5.25733480299958       -4.06087827070397        1.21398973054375
C            4.32652325915493       -4.31476653329796        0.24395469252655
C            4.06760833909559       -3.32342476466490       -0.71101455936003
H            6.22779460252546       -0.91564581570867        0.37204630797821
H            6.67128456992170       -2.66984764048296        2.03851130339471
H            5.46719631559807       -4.81127494123161        1.95818676178265
H            3.79251987668039       -5.24711864914390        0.20351527447834
N            3.18749599245206       -3.27092365900049       -1.77811660773838
C            3.30373627845878       -2.04847043366045       -2.38823368642927
H            2.51801321236836       -4.00362611302496       -2.02050711373326
H            2.69604654714705       -1.71147883525055       -3.21373598809798
