48
 energy: -9.103154850875 gnorm: 0.000656825679 xtb: 6.6.0 (2ccbbd7)
C            0.41040372469152        0.07046630189814       -8.02233717813702
C            0.58323120086107       -0.36542674431931       -6.72985560395875
C            1.33242002132744        0.93811418300584       -8.60911576367685
C            2.42554736361468        1.35343686568571       -7.84898185471031
C            2.59059715050980        0.91386375383212       -6.55834449402146
C            1.67866633121543        0.04150899106983       -5.98236967528009
H           -0.13549175911427       -1.03152484589979       -6.28447877681382
H            3.13082710464251        2.03153382458681       -8.29594440698429
H            3.41936017215887        1.26768911781614       -5.96796359287967
H           -0.44014646229541       -0.25404067016634       -8.59494861931445
C            1.85991299506013       -0.42325301947023       -4.57671495206987
C            1.32968730204209        0.53002941560193       -3.50246957968018
H            3.03024948237363       -0.56124661001054       -4.32945195944465
H            1.44087063657326       -1.42621190478689       -4.44523707647094
C            1.88234602890431        0.15932182292021       -2.13312587113990
O            1.18883924053050        1.39335359400801       -9.90556482558977
H            0.37479753876446        1.01881174757729      -10.30619961183292
O            1.23132661227286       -0.64488642029287       -1.49084045889893
N            1.52698910780067        1.93654591864561       -3.81769065995476
H            0.23761166247200        0.39393544507979       -3.42784730263815
H            2.51814738246673        2.09004833297989       -3.97109981290007
H            1.05361191122771        2.18858778427022       -4.67564675527695
N            3.06828468659180        0.67142435010707       -1.59147798691030
C            4.37746937855622        0.76799913609392       -2.29233858211732
H            3.22685979362290        0.42424006834396       -0.61622410409777
C            4.45464052685087        2.02746826837055       -3.12778802862211
O            4.44329162121765        1.93074081893927       -4.33627731338601
O            4.48903709202582        3.19897032642923       -2.44593813192640
H            4.41802821541983        3.04403808757772       -1.47958684070014
C            4.69872525963780       -0.47474356635557       -3.11384601467342
H            5.16019823273578        0.85851701529472       -1.52365826458113
C            4.80416969432017       -1.73107524279399       -2.32294508981297
H            5.60519849588571       -0.31316352291355       -3.70408172645105
H            3.81148546307056       -0.57837979838522       -3.91703436836592
C            5.94246266506996       -2.58921609771086       -2.24786642205099
C            7.22410895505386       -2.53377665691740       -2.82295894908351
C            8.10719032497459       -3.54303296799743       -2.55493720668129
C            7.75320916684630       -4.61810338859896       -1.72382575964893
C            6.51243836987138       -4.69291535178691       -1.15278926511451
C            5.59284519833752       -3.66922236942139       -1.41415091071930
H            7.49347514037896       -1.70996812500766       -3.45928750835300
H            9.09319254534754       -3.51515076504488       -2.98861080405329
H            8.47299564475005       -5.39711454632977       -1.53442416899824
H            6.23205829040617       -5.51247169714840       -0.51571522666056
N            4.28819095564556       -3.46937539975570       -0.99965062626115
C            3.82314714198708       -2.30333209211140       -1.55078576336781
H            3.76714031142501       -4.09699527507369       -0.38454118402484
H            2.83429208264088       -1.90421511754635       -1.38824928762724
