48
 energy: -9.280862996914 gnorm: 0.000906596067 xtb: 6.6.0 (2ccbbd7)
C            5.31887931291029       -4.35185734738568        0.55028141005508
C            4.32284319081711       -3.40957344429248        0.65196184867116
C            5.47866307311043       -5.09377548833866       -0.62063946474424
C            4.59397463617442       -4.86486430920877       -1.67364368360447
C            3.60528934006951       -3.91716332857310       -1.56650196784292
C            3.45382555374826       -3.17505943796854       -0.40384805708896
H            4.21484235838694       -2.83710021077280        1.55724729736275
H            4.71056102501812       -5.44235794490127       -2.57321591012028
H            2.94258452462745       -3.73376206420689       -2.39477269243794
H            5.99209846351005       -4.52050396508555        1.37141882921886
C            2.44676399933385       -2.06900390275355       -0.34741960920951
C            3.01580954764878       -0.75760683245601       -0.90023295472297
H            2.10238947476448       -1.91243210750880        0.67853854318005
H            1.55465258081033       -2.34816406928858       -0.91811870692749
C            1.92658936016182        0.23448851848126       -1.25623248437268
O            6.48649982244936       -6.02798009089812       -0.76608088551355
H            7.00044082216138       -6.09968788011687        0.06721336461838
O            0.77936030392743       -0.00473011917241       -0.93521119994668
N            3.96692376524665       -0.15052703827932        0.01788727524544
H            3.55400995853702       -1.00274210355532       -1.82515845421096
H            3.48201947375586        0.13825330912142        0.85640243646021
H            4.67914277334792       -0.81601820819008        0.28532421540240
N            2.26341350937976        1.39725472450047       -1.92364039235099
C            3.64920637860058        1.86656137526049       -2.03293340500113
H            1.57132463727143        2.14389404399912       -1.92849748041011
C            3.72921730911166        3.35359831956895       -2.29816708632681
O            4.61763849536518        3.96984675665652       -1.74984519177864
O            2.82913648967765        3.86503939839914       -3.17020869988658
H            2.24268690413186        3.15793576182141       -3.52666397899290
C            4.48424562437884        1.10785231488224       -3.08263955315482
H            4.10141110774089        1.70590972266660       -1.04325208070963
C            5.88087651214578        0.88035299687616       -2.60749127390931
H            4.50275534570751        1.68084353226410       -4.01535537877931
H            4.01136184566778        0.15691792414278       -3.33753332183970
C            6.58089545910969       -0.36038450164394       -2.51623516016598
C            6.24538516012575       -1.68160224216034       -2.86021146266958
C            7.14309420966930       -2.67714697793177       -2.59213666301797
C            8.38032724198710       -2.39942854882015       -1.99000727644792
C            8.73105761039706       -1.12158863818833       -1.65090438030616
C            7.82458688995005       -0.08710160886026       -1.91293481169344
H            5.29763359514666       -1.89477532960164       -3.32071873445287
H            6.89723618217656       -3.69662231489632       -2.83837547840299
H            9.06281101977297       -3.20879108304271       -1.79132007780306
H            9.67453989030870       -0.89916097303768       -1.18566231263001
N            7.87295941460326        1.27124177133220       -1.65119838421633
C            6.69539203819940        1.84102709031293       -2.06230267077729
H            8.64119315599125        1.74836057801217       -1.17624677879690
H            6.40948082772431        2.86970472161953       -1.90390399969455
