48
Energy =
C    -3.0427966    4.4230231   -0.3118387 
C    -1.8537112    4.0184630    0.2023631 
C    -4.1714189    3.7031711   -0.0720951 
C    -4.1016076    2.5823399    0.6816523 
C    -2.9152935    2.1733036    1.1984643 
C    -1.7835758    2.8922212    0.9638942 
H    -0.9580085    4.6019548    0.0016979 
H    -5.0083322    2.0163816    0.8645294 
H    -2.8790106    1.2671085    1.7970523 
H    -3.0883632    5.3227268   -0.9158463 
C    -0.4540568    2.4338129    1.5196479 
C     0.4061438    1.7114624    0.4544194 
H    -0.5975141    1.7714408    2.4010924 
H     0.0962824    3.3249115    1.9009152 
C     1.8299695    1.5063003    0.9441490 
O    -5.4121613    4.0908204   -0.5887142 
H    -5.3814353    4.9433417   -1.1370805 
O     2.4550912    2.4697738    1.4118826 
N    -0.2230043    0.4359392    0.0627136 
H     0.5173563    2.3663194   -0.4417551 
H    -0.4571178   -0.1221946    0.9171080 
H    -1.1217579    0.6300735   -0.4382920 
N     2.5719750    0.3372036    0.5646748 
C     3.9199241    0.6168067    0.0451990 
H     2.1638704   -0.6184609    0.6702756 
C     4.3534349    2.0231488    0.4593778 
O     5.5427180    2.5604695   -0.0243986 
O     3.6341277    2.6945778    1.2156999 
H     3.2272403    2.2601683    2.0187651 
C     3.9006235    0.4620299   -1.4870319 
H     4.6493542   -0.0909353    0.4956440 
C     3.6093678   -0.9639409   -1.8929431 
H     4.8735502    0.7831604   -1.9213913 
H     3.1245777    1.1377982   -1.9120830 
C     4.4899456   -1.9729389   -1.9727478 
C     5.8298776   -1.9781527   -1.7536295 
C     6.5041808   -3.1554985   -1.8944218 
C     5.8363108   -4.2967092   -2.2444394 
C     4.4892840   -4.2677064   -2.4544525 
C     3.8451446   -3.0904058   -2.3114309 
H     6.3606529   -1.0738066   -1.4703554 
H     7.5780078   -3.1867165   -1.7256017 
H     6.3807944   -5.2314148   -2.3531114 
H     3.9434413   -5.1643635   -2.7275420 
N     2.4537622   -2.8472256   -2.4661020 
C     2.3848678   -1.4461643   -2.1683298 
H     1.6877616   -3.5108084   -2.7237357 
H     1.4635167   -0.8665308   -2.1309412 
