48
Energy =
C     4.3850319   -2.9244033    1.0309689 
C     3.5043381   -1.9751107    1.4373917 
C     5.6984678   -2.8244720    1.3652783 
C     6.1245008   -1.7686606    2.0956114 
C     5.2477390   -0.8170034    2.5056499 
C     3.9288648   -0.9210534    2.1877339 
H     2.4554656   -2.0612544    1.1565793 
H     7.1759036   -1.6984502    2.3525786 
H     5.6077816    0.0214077    3.0965603 
H     4.0366578   -3.7623023    0.4363143 
C     2.9476003    0.1335155    2.6519203 
C     2.9390765    1.3691302    1.7238136 
H     3.2119551    0.4454106    3.6864055 
H     1.9194045   -0.2909761    2.7129927 
C     2.5179632    1.0302469    0.3010439 
O     6.6301853   -3.7866426    0.9640408 
H     6.2234899   -4.5699774    0.4631577 
O     1.5497161    0.0568336    0.0738529 
N     2.0632368    2.4070777    2.2891626 
H     3.9735408    1.7769977    1.6545928 
H     1.0853502    2.0375561    2.3760626 
H     2.3904686    2.6717516    3.2478956 
N     2.8183687    1.9389013   -0.7586721 
C     4.1388758    1.8284912   -1.3993390 
H     2.1157291    2.6776753   -0.9934200 
C     4.6232861    3.1948259   -1.8800926 
O     3.7463391    4.0349043   -2.5556166 
O     5.9516475    3.5961180   -1.7348110 
H     6.5316057    2.8730589   -1.3371677 
C     4.0222998    0.8320069   -2.5659939 
H     4.8854525    1.4470704   -0.6667444 
C     5.3426758    0.6436352   -3.2794594 
H     3.2498661    1.1953629   -3.2824886 
H     3.6540107   -0.1472479   -2.1875007 
C     6.3601848   -0.1421210   -2.8958220 
C     6.4608746   -0.9775005   -1.8306363 
C     7.6307652   -1.6561519   -1.6493543 
C     8.6696220   -1.4890327   -2.5226287 
C     8.5464409   -0.6407315   -3.5823784 
C     7.3789589    0.0163195   -3.7425018 
H     5.6381057   -1.1066114   -1.1338336 
H     7.7418556   -2.3327596   -0.8052238 
H     9.5989030   -2.0321991   -2.3688114 
H     9.3634522   -0.4899663   -4.2798291 
N     7.0567670    0.9592213   -4.7541594 
C     5.7235335    1.3260766   -4.3740196 
H     7.6337751    1.2915673   -5.5605847 
H     5.1285349    2.0943455   -4.8676027 
