48
 energy: -9.291227655508 gnorm: 0.000643611003 xtb: 6.6.0 (2ccbbd7)
C            3.29318427289916        3.54011898552108        1.80308536034924
C            2.89604650380481        2.22459948007672        1.78340099119927
C            2.35004686852669        4.56460570877383        1.88535905024271
C            1.00243014840696        4.21632390321761        1.97185737737293
C            0.61157694194932        2.89895735388433        1.93027526669725
C            1.55115517163140        1.88286320681016        1.82707947611383
H            3.62969764880644        1.44412964211458        1.67471575471846
H            0.27639826085749        5.00690423794392        2.03613083874701
H           -0.43446336703116        2.64558144163851        1.95038287335051
H            4.33364255360764        3.79452635082469        1.70160910526227
C            1.12271243155342        0.46494601120520        1.60108751233283
C            0.91431051520771        0.15380522252445        0.11299560889179
H            0.20591871782635        0.25992363200783        2.16206633738602
H            1.88049650452346       -0.21514937856020        2.00042730476875
C            2.19579307433164        0.39009028683304       -0.64999533165176
O            2.71847775002695        5.89706607938084        1.86042546872023
H            3.65282229799724        5.97665892274388        1.57476114830299
O            2.98317859844785       -0.52646498100414       -0.76447530044440
N            0.48108695182848       -1.21721583682093       -0.11751123643262
H            0.14141134391486        0.82455448665514       -0.29181483677075
H            1.30808200930051       -1.80763829180288       -0.10327184841747
H           -0.15025415625785       -1.53113741834353        0.60981558503079
N            2.44731766286429        1.66108583023154       -1.12480527682891
C            3.81409512750124        2.00568197958663       -1.48366271058441
H            1.90240637709584        2.44674174075850       -0.76609334975891
C            4.05649570484846        3.49047869390926       -1.33013622413973
O            5.00617181354686        3.85605124377172       -0.67106140141891
O            3.16410926309569        4.29286833611522       -1.95546135538499
H            2.47336590964932        3.74887893248373       -2.39853601532589
C            4.17859747868996        1.49075001905087       -2.87747047165251
H            4.45568247360246        1.49555400766423       -0.75048454967900
C            5.64234348541828        1.25863963940342       -3.02940508145424
H            3.82041853879960        2.18795229244986       -3.64010982374524
H            3.65040120070974        0.54708390215146       -3.05201213865764
C            6.36439313489428        0.20208695071937       -2.40412304213994
C            5.96626541137938       -0.84034370192570       -1.55106374084743
C            6.91644448314526       -1.71195742510712       -1.09916947966816
C            8.26409970138404       -1.57237760210001       -1.47085313825242
C            8.67382219739077       -0.55657422685467       -2.29163182219720
C            7.71581198022978        0.34798526553200       -2.76684298884242
H            4.93478241692148       -0.91535270222960       -1.24966009684550
H            6.62953699403867       -2.51581667630311       -0.44173194777480
H            8.98833943626642       -2.27674507439809       -1.09652019233195
H            9.70472943520677       -0.43885165960913       -2.57337737162730
N            7.80608219511635        1.46615979544373       -3.57875771537536
C            6.55493204144991        2.01582894848455       -3.72113896542399
H            8.67635825430337        1.83777445203392       -3.96389719018224
H            6.33326241591960        2.91135803278071       -4.27909850258928
