48
Energy =
C    -2.9949539   -2.8247759   -0.4069698 
C    -1.7530513   -2.4191954   -0.7743604 
C    -3.3895008   -2.7286958    0.8909790 
C    -2.5376058   -2.2254194    1.8128909 
C    -1.2948613   -1.8177097    1.4512031 
C    -0.8934715   -1.9162772    0.1543780 
H    -1.4549156   -2.4954718   -1.8167838 
H    -2.8648817   -2.1521789    2.8442230 
H    -0.6254337   -1.4129281    2.2061502 
H    -3.6724360   -3.2241142   -1.1539387 
C     0.4854481   -1.4463539   -0.2517116 
C     0.5610571    0.0922793   -0.4039703 
H     0.8029762   -1.9334194   -1.1982684 
H     1.2158430   -1.7842715    0.5193123 
C     2.0027573    0.5502374   -0.5915766 
O    -4.6621796   -3.1372721    1.3027858 
H    -5.2405845   -3.5021571    0.5539779 
O     2.9843999    0.0441957    0.2570213 
N    -0.3072799    0.5406584   -1.5090537 
H     0.2320430    0.5744094    0.5463628 
H    -0.0953556   -0.0014900   -2.3807380 
H    -1.3119521    0.3714169   -1.2654647 
N     2.3358948    1.6113821   -1.5038786 
C     3.7470766    2.0406603   -1.5978260 
H     1.5671011    2.1243154   -1.9956854 
C     3.8644373    3.5340867   -1.8926776 
O     4.8573258    4.0030465   -2.7449319 
O     3.0595473    4.4694696   -1.2441621 
H     2.4368924    4.0331353   -0.5799488 
C     4.4799906    1.1519012   -2.6336200 
H     4.2590143    1.9288673   -0.6136275 
C     3.7240657    1.0375286   -3.9438889 
H     4.6304773    0.1434453   -2.1934717 
H     5.5023784    1.5472608   -2.8284779 
C     2.8708806    0.0614732   -4.3006278 
C     2.5010000   -1.0638120   -3.6342985 
C     1.5992236   -1.9007694   -4.2230514 
C     1.0842100   -1.6046505   -5.4542683 
C     1.4702743   -0.4710833   -6.1055341 
C     2.3659125    0.3394509   -5.5038835 
H     2.9061542   -1.3026144   -2.6561725 
H     1.2908921   -2.8094781   -3.7121021 
H     0.3664253   -2.2765755   -5.9181495 
H     1.0722379   -0.2210033   -7.0831530 
N     2.8901361    1.5593789   -6.0067866 
C     3.7584273    1.9488857   -4.9331543 
H     2.6981056    2.0414220   -6.9150826 
H     4.3460508    2.8659505   -4.9188396 
