48
Energy =
C    -3.1357911    0.9793774   -3.5170042 
C    -2.0083398    1.5377684   -3.0085921 
C    -4.1008772    0.5081641   -2.6828763 
C    -3.9309361    0.6006762   -1.3443190 
C    -2.8052371    1.1580470   -0.8303365 
C    -1.8371098    1.6324872   -1.6611941 
H    -1.2436626    1.9083734   -3.6868746 
H    -4.7084058    0.2212857   -0.6902679 
H    -2.6851592    1.2187187    0.2481129 
H    -3.2625261    0.9095996   -4.5919721 
C    -0.5677541    2.2314416   -1.0978499 
C     0.6225582    1.2478010   -1.1783029 
H    -0.7136372    2.5606186   -0.0436473 
H    -0.3291038    3.1566645   -1.6702099 
C     1.9287679    1.9547022   -0.8661430 
O    -5.2725707   -0.0769048   -3.1735802 
H    -5.3314251   -0.0942628   -4.1858924 
O     2.1677549    2.4238775    0.4221483 
N     0.4200753    0.1044963   -0.2729216 
H     0.7162319    0.8721072   -2.2233330 
H     0.2722763    0.4526522    0.7052600 
H    -0.4382790   -0.4237296   -0.5545172 
N     2.7458532    2.4407899   -1.9375407 
C     4.2013730    2.2409591   -1.8121432 
H     2.3007204    2.8710312   -2.7811469 
C     4.9875451    3.2085803   -2.6923578 
O     4.4376163    3.6829163   -3.8777226 
O     6.3048075    3.5547224   -2.3914345 
H     6.6192060    3.1627484   -1.5165683 
C     4.5702860    0.7661263   -2.1089368 
H     4.5096752    2.4853999   -0.7688940 
C     3.9444658    0.2356500   -3.3875804 
H     4.2654912    0.1481425   -1.2394412 
H     5.6755597    0.6573360   -2.1810162 
C     2.9816704   -0.6987311   -3.4951826 
C     2.3358186   -1.4090001   -2.5323875 
C     1.3731458   -2.2961129   -2.9138073 
C     1.0759322   -2.4667387   -4.2366877 
C     1.7412765   -1.7519469   -5.1869771 
C     2.6881795   -0.8785943   -4.7850800 
H     2.5575923   -1.2791676   -1.4782926 
H     0.8387054   -2.8694608   -2.1598815 
H     0.3074118   -3.1767172   -4.5324002 
H     1.5198982   -1.8767794   -6.2415782 
N     3.4844760   -0.0430753   -5.6104825 
C     4.2724116    0.6439262   -4.6280313 
H     3.4969211    0.0447782   -6.6530422 
H     5.0197859    1.4031491   -4.8607469 
