48
Energy =
C    -1.8196587    1.5953247   -2.7080835 
C    -0.6888717    2.1613200   -2.2172236 
C    -2.6000196    0.8227637   -1.9073141 
C    -2.2540996    0.6401806   -0.6132986 
C    -1.1278010    1.2095107   -0.1153827 
C    -0.3215813    1.9556476   -0.9213896 
H    -0.0797150    2.7746269   -2.8747663 
H    -2.8859633    0.0260538    0.0184253 
H    -0.8671795    1.0401413    0.9247805 
H    -2.0937240    1.7586960   -3.7448068 
C     0.9719831    2.5460853   -0.3868955 
C     1.9476230    1.4784898    0.1731189 
H     0.7201852    3.2686113    0.4181886 
H     1.4901525    3.1337112   -1.1769004 
C     2.1741985    0.3166347   -0.7853019 
O    -3.7553464    0.2001323   -2.3913274 
H    -3.9730191    0.4291718   -3.3551502 
O     1.2488908   -0.7206199   -0.8010737 
N     3.2059502    2.1187433    0.5945384 
H     1.4857722    0.9985709    1.0662524 
H     3.6242356    2.6535840   -0.2030696 
H     3.0126790    2.8111888    1.3557150 
N     3.4019722    0.1330516   -1.5056919 
C     3.3093816    0.5198531   -2.9344658 
H     3.6068063   -0.8896576   -1.4348013 
C     3.3492558    2.0359007   -3.1038928 
O     2.3089013    2.6983324   -3.7458564 
O     4.4366848    2.7859916   -2.6577666 
H     5.1178364    2.2066291   -2.1849989 
C     2.1026431   -0.1306490   -3.6756186 
H     4.2376221    0.1734528   -3.4388879 
C     2.1603615   -1.6470819   -3.7134208 
H     2.0890870    0.2263680   -4.7292281 
H     1.1569210    0.2299633   -3.2227672 
C     1.1895645   -2.5168764   -3.3653756 
C    -0.0429937   -2.2991435   -2.8325690 
C    -0.8536838   -3.3722916   -2.6032498 
C    -0.4303340   -4.6345983   -2.9089650 
C     0.8076537   -4.8330900   -3.4416700 
C     1.5938663   -3.7569990   -3.6546457 
H    -0.3774994   -1.3043650   -2.5550423 
H    -1.8388100   -3.2226670   -2.1653880 
H    -1.0820863   -5.4848266   -2.7215578 
H     1.1575005   -5.8292445   -3.6917633 
N     2.8942411   -3.7517053   -4.2246870 
C     3.1823462   -2.3490574   -4.2390037 
H     3.4771773   -4.5568295   -4.5524996 
H     4.0855957   -1.9186648   -4.6655273 
