48
Energy =
C    -0.6121928   -0.9553635   -4.5603667 
C    -0.9014463   -0.8411779   -3.2390426 
C     0.5597053   -1.5194263   -4.9574036 
C     1.4303129   -1.9748252   -4.0292788 
C     1.1473621   -1.8613483   -2.7076458 
C    -0.0184283   -1.2852889   -2.3027216 
H    -1.8423572   -0.3879774   -2.9377922 
H     2.3597546   -2.4267575   -4.3585664 
H     1.8658905   -2.2230179   -1.9766146 
H    -1.3192178   -0.5919140   -5.2985720 
C    -0.3112927   -1.1190588   -0.8253653 
C     0.1914606    0.2223368   -0.2302392 
H     0.1591723   -1.9571713   -0.2627410 
H    -1.4037886   -1.2206515   -0.6433724 
C     1.6592387    0.5056409   -0.5269872 
O     0.8959140   -1.6392816   -6.3088465 
H     0.1901842   -1.2801361   -6.9429588 
O     2.6172659    0.1167864    0.4069861 
N    -0.6878895    1.3407573   -0.6158362 
H     0.1548715    0.1266477    0.8816510 
H    -0.7803496    1.4094660   -1.6544075 
H    -1.6487544    1.1838256   -0.2295518 
N     2.0780361    1.0514848   -1.7922617 
C     3.5138593    1.3333599   -1.9869924 
H     1.3636441    1.2190509   -2.5341266 
C     3.7266813    2.4299984   -3.0235585 
O     4.4489118    3.5637440   -2.6749631 
O     3.2305674    2.3253480   -4.3255096 
H     2.7540201    1.4497782   -4.4805810 
C     4.2427501    0.0242348   -2.3654619 
H     3.9452263    1.7410473   -1.0398304 
C     5.7449854    0.1896073   -2.3061984 
H     3.9246334   -0.3322994   -3.3674581 
H     3.9555530   -0.7749587   -1.6466569 
C     6.5702166    0.5085426   -3.3168381 
C     6.2997108    0.7328133   -4.6286113 
C     7.3331766    1.0552258   -5.4580427 
C     8.6075337    1.1473525   -4.9707607 
C     8.8558123    0.9189938   -3.6498998 
C     7.8167362    0.6011972   -2.8493538 
H     5.2893373    0.6696060   -5.0195345 
H     7.1399400    1.2469298   -6.5109202 
H     9.4247507    1.4098079   -5.6378670 
H     9.8594493    0.9941627   -3.2456538 
N     7.8579829    0.3397345   -1.4534782 
C     6.4732717    0.0896203   -1.1802328 
H     8.6776487    0.3277146   -0.8043178 
H     6.0683974   -0.1283448   -0.1932915 
