48
Energy =
C    -1.0100034    4.9862126   -2.4592876 
C    -1.4312046    3.7558500   -2.0716095 
C    -0.0211983    5.1108763   -3.3845342 
C     0.5426251    4.0006163   -3.9118402 
C     0.1193198    2.7678726   -3.5341429 
C    -0.8704479    2.6367091   -2.6088491 
H    -2.2173639    3.6744574   -1.3258917 
H     1.3449950    4.1104637   -4.6328573 
H     0.5891900    1.8895800   -3.9697023 
H    -1.4657041    5.8702666   -2.0269463 
C    -1.3327451    1.2622911   -2.1665356 
C    -0.4259275    0.6181913   -1.0872119 
H    -1.3846887    0.5909126   -3.0540313 
H    -2.3724614    1.3184687   -1.7764154 
C     0.9454121    0.2405386   -1.6290705 
O     0.4248875    6.3661587   -3.8141844 
H    -0.0187183    7.1439308   -3.3392577 
O     1.0058080   -0.5598046   -2.7659948 
N    -0.3460009    1.4699223    0.1146361 
H    -0.8830606   -0.3559613   -0.7985103 
H     0.1152814    2.3803598   -0.1261861 
H    -1.3118895    1.6971150    0.4491896 
N     2.0963179    0.2914054   -0.7737469 
C     3.3366093    0.9003341   -1.2900883 
H     2.0152591   -0.0800081    0.1985818 
C     3.0915074    2.2764840   -1.9089230 
O     3.3036928    2.4832002   -3.2684898 
O     2.6522506    3.3482608   -1.1325506 
H     2.5241093    3.0781347   -0.1680111 
C     4.0472195   -0.0681862   -2.2601597 
H     4.0192979    1.0763218   -0.4299456 
C     4.3549550   -1.3923204   -1.5992647 
H     4.9912871    0.3896432   -2.6276249 
H     3.4126990   -0.2341937   -3.1605212 
C     5.3886874   -1.6630900   -0.7877913 
C     6.4114309   -0.8657143   -0.3849195 
C     7.3447765   -1.3880188    0.4614983 
C     7.2419795   -2.6830910    0.8890343 
C     6.2045456   -3.4639640    0.4731811 
C     5.2950093   -2.9251262   -0.3655173 
H     6.4938702    0.1637108   -0.7214675 
H     8.1746207   -0.7711727    0.7985872 
H     7.9896424   -3.0918172    1.5644115 
H     6.1067142   -4.4921154    0.8054326 
N     4.1421391   -3.5572819   -0.9034262 
C     3.5852734   -2.4919215   -1.6858850 
H     3.7921436   -4.5333854   -0.7653777 
H     2.6566889   -2.5615774   -2.2500958 
