48
Energy =
C     3.0219777    1.1388961    4.7681814 
C     3.1041649    0.1617539    3.8303323 
C     3.5748620    2.3588580    4.5342372 
C     4.2027676    2.5938243    3.3596521 
C     4.2904291    1.6193672    2.4192525 
C     3.7462287    0.3927969    2.6516115 
H     2.6495712   -0.8053318    4.0272095 
H     4.6292877    3.5749697    3.1794460 
H     4.7901964    1.8356625    1.4798189 
H     2.5104027    0.9434940    5.7042844 
C     3.8138347   -0.6912841    1.5957719 
C     2.5232052   -0.7480947    0.7463054 
H     3.9666056   -1.6738890    2.0943385 
H     4.7009183   -0.5447963    0.9434131 
C     2.2615117    0.5503460   -0.0076075 
O     3.5136909    3.3848970    5.4828921 
H     3.0023853    3.1416985    6.3240676 
O     1.3980278    1.4837650    0.5507403 
N     2.5652853   -1.9122999   -0.1549632 
H     1.6500304   -0.8621472    1.4320018 
H     3.4763846   -1.9300182   -0.6686671 
H     2.5185793   -2.7900631    0.4144011 
N     2.6116299    0.7078188   -1.3883057 
C     3.9939033    1.1135496   -1.7097506 
H     1.9067407    0.4088399   -2.0965995 
C     4.1157634    2.6016004   -2.0416894 
O     5.2849881    3.0544739   -2.6419537 
O     3.1495120    3.5468263   -1.7011715 
H     2.3743861    3.1446601   -1.1928785 
C     4.5572964    0.2166648   -2.8390544 
H     4.6533044    0.9730726   -0.8279197 
C     3.7874805    0.3314385   -4.1419119 
H     4.5791117   -0.8376532   -2.4970633 
H     5.6204860    0.4898097   -3.0293891 
C     2.8327980   -0.4994124   -4.5962744 
C     2.3133135   -1.6240414   -4.0373588 
C     1.3316247   -2.2896462   -4.7103158 
C     0.8879463   -1.8290093   -5.9185991 
C     1.4225085   -0.6985789   -6.4608358 
C     2.3926193   -0.0574992   -5.7761987 
H     2.6530484   -1.9902576   -3.0741438 
H     0.8964840   -3.1891499   -4.2810302 
H     0.1030790   -2.3639508   -6.4476981 
H     1.0791450   -0.3170441   -7.4165875 
N     3.0678132    1.1311227   -6.1590521 
C     3.9526141    1.3157775   -5.0453330 
H     2.9563888    1.7102767   -7.0233767 
H     4.6516524    2.1462467   -4.9460933 
