48
Energy =
C    -1.1753947   -1.6902969   -5.2002624 
C    -0.3058095   -0.7838593   -4.6867466 
C    -0.7110304   -2.7919820   -5.8481091 
C     0.6221364   -2.9776684   -5.9794673 
C     1.4963614   -2.0750269   -5.4669651 
C     1.0368626   -0.9750948   -4.8102054 
H    -0.6924314    0.0953759   -4.1771870 
H     0.9796476   -3.8569032   -6.5040712 
H     2.5637413   -2.2360402   -5.5926420 
H    -2.2427610   -1.5304370   -5.0936740 
C     2.0060687    0.0461769   -4.2577719 
C     2.3117249    1.1476636   -5.2931117 
H     2.9459602   -0.4561762   -3.9402146 
H     1.5732717    0.4990713   -3.3354796 
C     2.9845278    2.3516003   -4.6423121 
O    -1.5799895   -3.7452948   -6.3889604 
H    -2.5622716   -3.5340082   -6.2511878 
O     2.3117457    3.0600806   -3.6554215 
N     3.1021207    0.5627501   -6.3930780 
H     1.3453079    1.5377119   -5.6947731 
H     4.0799060    0.3481739   -6.0721600 
H     3.1818098    1.2510379   -7.1777093 
N     4.3145359    2.7463223   -4.9963607 
C     5.3921368    2.6237473   -3.9876166 
H     4.5132196    2.9965354   -5.9923495 
C     6.7593364    2.7213788   -4.6557227 
O     7.7025942    3.6146218   -4.1563440 
O     7.0899845    1.9218168   -5.7581039 
H     6.3499192    1.2816187   -6.0199853 
C     5.2684716    1.3179375   -3.1592537 
H     5.3173385    3.4925804   -3.2964469 
C     6.3407549    1.2190823   -2.0950189 
H     5.3038567    0.4336027   -3.8298851 
H     4.2854253    1.2935125   -2.6411224 
C     7.5217273    0.5862338   -2.1888991 
C     8.0523821   -0.1244713   -3.2172178 
C     9.2949823   -0.6637155   -3.0598572 
C     9.9817875   -0.4876623   -1.8906332 
C     9.4305618    0.2318105   -0.8723112 
C     8.1996314    0.7552864   -1.0520899 
H     7.5180519   -0.2538191   -4.1539461 
H     9.7445553   -1.2271281   -3.8739728 
H    10.9745284   -0.9153356   -1.7763801 
H     9.9651718    0.3886599    0.0580574 
N     7.4596793    1.5439011   -0.1302440 
C     6.2714831    1.8095491   -0.8886490 
H     7.7175801    1.8380623    0.8398385 
H     5.4395789    2.4214991   -0.5424366 
