48
Energy =
C     0.1778385    6.1964333   -0.7688640 
C    -0.5063540    5.0252928   -0.7190733 
C     1.1475238    6.3823752   -1.7039396 
C     1.4251810    5.3947915   -2.5830156 
C     0.7263644    4.2321403   -2.5532775 
C    -0.2372111    4.0340771   -1.6139674 
H    -1.2644730    4.8854372    0.0469897 
H     2.2310347    5.5407819   -3.2940826 
H     0.9625747    3.4482065   -3.2672791 
H    -0.0472423    6.9805474   -0.0537762 
C    -0.9742924    2.7109162   -1.5387932 
C    -0.1462146    1.5829164   -0.8697866 
H    -1.2789222    2.3964694   -2.5623945 
H    -1.9240757    2.8352494   -0.9735603 
C     0.9993370    1.0976802   -1.7524423 
O     1.8657560    7.5796880   -1.7866349 
H     1.6327929    8.2502762   -1.0622929 
O     0.6803637    0.6635018   -3.0363593 
N     0.2998151    1.9891557    0.4756111 
H    -0.8054780    0.6916716   -0.7617506 
H     1.0409972    2.7266923    0.3968965 
H    -0.4979330    2.3964835    1.0165457 
N     2.2205593    0.6327966   -1.1491954 
C     3.4471174    1.0013256   -1.9016198 
H     2.1293454   -0.4018418   -1.0439009 
C     3.4809126    2.4802810   -2.3014537 
O     3.3723772    2.8601313   -3.6351698 
O     3.5621593    3.4869299   -1.3422544 
H     3.5454968    3.1024590   -0.4068727 
C     3.6899387    0.0366913   -3.0925391 
H     4.2962876    0.8815119   -1.1945363 
C     5.0898050    0.1686595   -3.6598713 
H     2.9285662    0.2125155   -3.8791420 
H     3.5548016   -1.0140029   -2.7579979 
C     5.4474907    0.6499113   -4.8643055 
C     4.6846806    1.1426168   -5.8756171 
C     5.3074703    1.5658946   -7.0125384 
C     6.6674420    1.4900462   -7.1249899 
C     7.4140868    0.9914430   -6.1000781 
C     6.7759562    0.5805754   -4.9840580 
H     3.6050958    1.2173068   -5.7926788 
H     4.7180700    1.9714462   -7.8311907 
H     7.1554206    1.8325588   -8.0339441 
H     8.4943241    0.9262380   -6.1736319 
N     7.3670322    0.0286511   -3.8159492 
C     6.2049809   -0.2107367   -3.0099729 
H     8.3770538   -0.1561992   -3.6143463 
H     6.2224387   -0.6401354   -2.0096158 
