48
Energy =
C     3.4486274   -1.1893529    2.6134676 
C     2.4813557   -0.2613057    2.4043956 
C     3.3077852   -2.4485538    2.1172390 
C     2.1965316   -2.7692014    1.4154755 
C     1.2275894   -1.8445906    1.2017688 
C     1.3621184   -0.5838451    1.6990324 
H     2.6207527    0.7465152    2.7889778 
H     2.0945513   -3.7732320    1.0183525 
H     0.3518084   -2.1183771    0.6182291 
H     4.3396841   -0.9165935    3.1698655 
C     0.3120105    0.4684771    1.4137034 
C     0.7472068    1.4130507    0.2705329 
H     0.1343217    1.0620442    2.3373021 
H    -0.6600997   -0.0092703    1.1550653 
C     0.9885973    0.6573138   -1.0345727 
O     4.2896124   -3.4272410    2.3086881 
H     5.0914934   -3.1023231    2.8385977 
O     0.0070066   -0.1952552   -1.5329100 
N    -0.2542463    2.4717548    0.0769030 
H     1.7060249    1.8970748    0.5638340 
H    -1.1856050    2.0406320   -0.1382813 
H    -0.3580268    3.0206634    0.9625454 
N     2.1153377    0.9681518   -1.8744467 
C     3.3783378    0.4165264   -1.3197420 
H     2.1478517    2.0101573   -1.9696807 
C     4.3327935    1.5234996   -0.8303708 
O     4.5414912    1.7047788    0.5345698 
O     4.9201891    2.4192764   -1.7424881 
H     4.6820966    2.0400070   -2.7606183 
C     4.0284334   -0.5227799   -2.3710745 
H     3.1795335   -0.2390882   -0.4423884 
C     4.4950322    0.1610156   -3.6480681 
H     3.3053254   -1.3226641   -2.6412194 
H     4.9026730   -1.0175236   -1.8928236 
C     5.3660704   -0.3633283   -4.5150797 
C     5.7602890   -1.6567509   -4.6431462 
C     6.7039282   -1.9600606   -5.5776795 
C     7.2492755   -0.9750295   -6.3501284 
C     6.8569227    0.3188284   -6.1881103 
C     5.9107942    0.5963500   -5.2631810 
H     5.3358655   -2.4428274   -4.0235150 
H     7.0298401   -2.9890079   -5.7036060 
H     8.0081494   -1.2220140   -7.0871961 
H     7.3018591    1.1130607   -6.7792735 
N     5.4396596    1.8918196   -4.9107643 
C     4.4329646    1.6470808   -3.8780992 
H     5.7406191    2.8102436   -5.3086026 
H     3.4212435    1.9635750   -4.2103087 
