48
Energy =
C     0.1178273   -0.7972863   -4.2161961 
C     0.8513284   -1.0919526   -3.1138074 
C    -1.2334607   -0.6818133   -4.1254528 
C    -1.8400174   -0.8620369   -2.9298896 
C    -1.1085787   -1.1559695   -1.8247015 
C     0.2459602   -1.2709328   -1.9106070 
H     1.9264794   -1.1816304   -3.1956155 
H    -2.9188944   -0.7680078   -2.8691319 
H    -1.6156663   -1.2967318   -0.8739945 
H     0.6147198   -0.6556525   -5.1689555 
C     1.0676864   -1.5992205   -0.6801767 
C     1.6127372   -0.3640172    0.0841186 
H     1.9171293   -2.2614655   -0.9628771 
H     0.4490643   -2.2030848    0.0204351 
C     2.8324549    0.2799187   -0.5701813 
O    -2.0201026   -0.3818876   -5.2424669 
H    -1.4904954   -0.2425557   -6.0953525 
O     4.0566687    0.1727469    0.0896958 
N     0.5510788    0.6143453    0.3778099 
H     1.9977335   -0.7423903    1.0606085 
H     0.1230423    0.9738035   -0.5071397 
H    -0.2128875    0.1448677    0.9176597 
N     2.7208579    1.0262058   -1.8055046 
C     3.9820701    1.7146679   -2.1943144 
H     2.0095800    1.7669342   -1.6077913 
C     3.7310003    2.8726728   -3.1571680 
O     3.5476891    4.1572163   -2.6565178 
O     3.6679973    2.6659920   -4.5408263 
H     3.6515677    1.5555760   -4.8060286 
C     5.0018666    0.7184211   -2.7988501 
H     4.4535565    2.1941122   -1.3040020 
C     4.4186436   -0.1607844   -3.8945505 
H     5.4422412    0.1192454   -1.9815098 
H     5.8498687    1.2867531   -3.2408516 
C     4.5882847   -1.4878504   -4.0083486 
C     5.1917854   -2.3587184   -3.1511858 
C     5.2401542   -3.6786464   -3.4842762 
C     4.6971877   -4.1123390   -4.6577701 
C     4.1043628   -3.2269425   -5.5042063 
C     4.0649935   -1.9218039   -5.1555489 
H     5.6243085   -2.0354348   -2.2105198 
H     5.7145456   -4.3891326   -2.8110864 
H     4.7407904   -5.1671119   -4.9187500 
H     3.6728220   -3.5573593   -6.4431299 
N     3.4928685   -0.8776917   -5.9336788 
C     3.6341696    0.3356097   -5.1067820 
H     3.0663287   -1.0033421   -6.8846308 
H     3.1750048    1.0828986   -5.8038486 
