48
Energy =
C    -0.7172633    6.4552686   -2.1031383 
C    -0.4474514    5.1738949   -2.4589715 
C    -1.5039107    6.7139293   -1.0252176 
C    -2.0189369    5.6876116   -0.3126773 
C    -1.7524079    4.4050630   -0.6635857 
C    -0.9546819    4.1362667   -1.7357836 
H     0.1735406    4.9877213   -3.3316255 
H    -2.6492041    5.9065629    0.5417862 
H    -2.1819377    3.5961325   -0.0802413 
H    -0.3032096    7.2712302   -2.6860023 
C    -0.6568520    2.6995936   -2.1296287 
C     0.5502687    2.0631547   -1.3857331 
H    -0.4693771    2.6436153   -3.2260144 
H    -1.5586024    2.0751481   -1.9501657 
C     1.9079635    2.6171184   -1.7986855 
O    -1.8016052    8.0219450   -0.6305995 
H    -1.3757502    8.7336133   -1.2149556 
O     2.0155986    3.4149601   -2.7408942 
N     0.3731639    2.1145701    0.0748468 
H     0.5888264    0.9921285   -1.6863634 
H     0.4457089    3.1046388    0.4071186 
H    -0.5702559    1.7442709    0.3334616 
N     3.1065679    2.0602519   -1.2344439 
C     4.2130822    1.8882708   -2.1909368 
H     3.1510950    1.7962470   -0.2240727 
C     3.9291474    2.6924357   -3.4647656 
O     4.7387986    2.5574675   -4.5883458 
O     2.9640371    3.4701438   -3.4993433 
H     2.7893424    4.0527932   -2.7067521 
C     4.3799444    0.3782796   -2.4653500 
H     5.1409933    2.3107746   -1.7477116 
C     5.7571085    0.0456871   -2.9976629 
H     3.5941125    0.0373197   -3.1764274 
H     4.2105443   -0.1957548   -1.5282591 
C     6.8702692   -0.1423253   -2.2717618 
C     7.0481838   -0.1012340   -0.9260991 
C     8.2998761   -0.3219108   -0.4312944 
C     9.3432141   -0.5742331   -1.2787372 
C     9.1412984   -0.6063243   -2.6267476 
C     7.8934397   -0.3875065   -3.0917114 
H     6.2220366    0.1056858   -0.2520461 
H     8.4694225   -0.2941921    0.6423389 
H    10.3383728   -0.7464044   -0.8766275 
H     9.9589852   -0.7992106   -3.3128759 
N     7.4745071   -0.3626390   -4.4485972 
C     6.0777622   -0.0665082   -4.2989098 
H     8.0318789   -0.5253386   -5.3183755 
H     5.3862671    0.1000520   -5.1247347 
