48
Energy =
C    -1.2290852    5.1147203    0.1800060 
C    -1.3730067    4.0886324   -0.6964628 
C    -0.6409133    6.2750216   -0.2162394 
C    -0.2011160    6.4011199   -1.4886337 
C    -0.3436722    5.3791760   -2.3694549 
C    -0.9300371    4.2134936   -1.9779525 
H    -1.8444344    3.1671381   -0.3643874 
H     0.2682326    7.3310455   -1.7917505 
H     0.0205777    5.4975502   -3.3878037 
H    -1.5855768    5.0048287    1.1987469 
C    -1.0749201    3.0642657   -2.9549419 
C     0.1632208    2.1359542   -3.0078172 
H    -1.2650307    3.4691087   -3.9750617 
H    -1.9770241    2.4631712   -2.7055438 
C     1.4335459    2.8805092   -3.3975384 
O    -0.4756526    7.3501693    0.6618896 
H    -0.8313070    7.1793715    1.5963519 
O     1.5299013    3.4269057   -4.6727037 
N     0.3148171    1.3762159   -1.7544953 
H    -0.0046403    1.4042001   -3.8306255 
H     0.4922048    2.0287679   -0.9552114 
H    -0.5705720    0.8575413   -1.5477743 
N     2.4042412    3.2583841   -2.4062954 
C     3.7317941    2.6024342   -2.3723780 
H     2.1458376    3.9917108   -1.7087467 
C     4.8355937    3.5461771   -2.8497758 
O     5.9050112    3.8181213   -2.0036487 
O     4.8203232    4.1347530   -4.1147085 
H     3.9794483    3.8920091   -4.6175498 
C     3.7394123    1.2402682   -3.1160686 
H     3.9679673    2.3968605   -1.3036128 
C     5.0096907    0.4625739   -2.8459544 
H     3.6064563    1.3879829   -4.2099864 
H     2.8764255    0.6275339   -2.7694373 
C     6.1384259    0.4693819   -3.5744755 
C     6.4312170    1.1268575   -4.7261651 
C     7.6731094    0.9670967   -5.2663972 
C     8.5938857    0.1613061   -4.6560650 
C     8.2783315   -0.4891341   -3.5003606 
C     7.0429773   -0.3151065   -2.9852632 
H     5.7063201    1.7721619   -5.2121462 
H     7.9326895    1.4885607   -6.1844312 
H     9.5826673    0.0428185   -5.0915329 
H     8.9984584   -1.1280574   -3.0010287 
N     6.5213438   -0.8889532   -1.7947298 
C     5.2021664   -0.3288733   -1.7759969 
H     6.9784148   -1.5441618   -1.1202771 
H     4.4673834   -0.5119898   -0.9955061 
