48
Energy =
C    -3.7484381    1.0065436   -1.1000385 
C    -2.6811007    1.6262445   -0.5355830 
C    -3.5865063    0.2476953   -2.2170891 
C    -2.3554648    0.1125176   -2.7607330 
C    -1.2848573    0.7302497   -2.2009128 
C    -1.4439926    1.4992260   -1.0892475 
H    -2.8247489    2.2220509    0.3618770 
H    -2.2386133   -0.5002029   -3.6477170 
H    -0.2999043    0.6014668   -2.6438299 
H    -4.7305852    1.1167142   -0.6534253 
C    -0.2419149    2.1580058   -0.4514470 
C     0.5246117    1.1585824    0.4754979 
H    -0.5684569    3.0521079    0.1250346 
H     0.3688980    2.5939464   -1.2554321 
C     2.0234944    0.9447603    0.2287047 
O    -4.6647794   -0.4054103   -2.8229459 
H    -5.5524977   -0.2539255   -2.3564778 
O     2.6489345   -0.0476876    0.9813241 
N     0.2882761    1.5247099    1.8817384 
H     0.1207907    0.1284591    0.3258475 
H     0.6820302    2.4758465    2.0742653 
H    -0.7400413    1.5482490    2.0760563 
N     2.7690694    1.5499597   -0.8527930 
C     4.2434425    1.4865744   -0.7874536 
H     2.3303807    2.1094554   -1.6110334 
C     4.8481616    2.8845680   -0.6864630 
O     5.8580459    3.2757253   -1.5591696 
O     4.4495407    3.7742898    0.3101796 
H     3.7268622    3.3725135    0.8905761 
C     4.7666521    0.7048735   -2.0160493 
H     4.5938947    0.9752894    0.1342029 
C     4.0091136   -0.5869440   -2.2532244 
H     5.8502838    0.4869045   -1.8954691 
H     4.6769220    1.3498735   -2.9195729 
C     4.0419634   -1.7023148   -1.5054204 
C     4.7478502   -1.9778496   -0.3796202 
C     4.5889630   -3.2014128    0.2041141 
C     3.7387111   -4.1219996   -0.3433874 
C     3.0392990   -3.8231335   -1.4745595 
C     3.2119768   -2.6058022   -2.0307063 
H     5.4070451   -1.2406104    0.0642911 
H     5.1304799   -3.4417537    1.1165284 
H     3.6114201   -5.0926030    0.1301057 
H     2.3545732   -4.5384454   -1.9176962 
N     2.5742239   -2.0969087   -3.1930428 
C     3.1406664   -0.7822634   -3.2620836 
H     1.8802709   -2.5595521   -3.8240236 
H     2.8868098   -0.0437476   -4.0190714 
