48
Energy =
C    -0.1344225    6.6646245    1.3878930 
C    -0.1192444    5.4293843    0.8258481 
C     0.7872932    6.9986380    2.3304012 
C     1.7199132    6.0929710    2.7033174 
C     1.7393423    4.8559547    2.1455886 
C     0.8163894    4.5155234    1.2047933 
H    -0.8611889    5.1802334    0.0714711 
H     2.4521123    6.3724714    3.4531656 
H     2.5000771    4.1436182    2.4562373 
H    -0.8850263    7.3851467    1.0813402 
C     0.8502045    3.1432347    0.5700762 
C     1.9975401    3.0027620   -0.4585020 
H    -0.1228602    2.9048951    0.0821924 
H     0.9772622    2.3840048    1.3745888 
C     2.0972542    1.5730389   -0.9597738 
O     0.7987865    8.2627987    2.9288201 
H     0.0698270    8.8838846    2.5954394 
O     1.0082266    1.0240316   -1.6276574 
N     1.8063261    3.9226009   -1.5900691 
H     2.9623746    3.2444535    0.0425972 
H     0.8544267    3.7877031   -2.0063198 
H     1.8835422    4.9138034   -1.2625028 
N     3.0553755    0.6734788   -0.3881761 
C     4.4316808    0.6387199   -0.9261226 
H     2.7728169    0.1113126    0.4451555 
C     5.1179483    1.9985521   -0.9706105 
O     5.7058884    2.5035103    0.1837659 
O     5.1439854    2.7678769   -2.1304263 
H     4.4123187    2.3683095   -2.9183764 
C     4.4927863   -0.1342396   -2.2626336 
H     5.0490614    0.0524335   -0.2088829 
C     3.6423924    0.4566386   -3.3841399 
H     4.2002311   -1.1805322   -2.0461222 
H     5.5475477   -0.1688813   -2.6162211 
C     2.8775692   -0.2472894   -4.2343215 
C     2.6092027   -1.5835587   -4.2535875 
C     1.8057245   -2.0774324   -5.2368987 
C     1.2894695   -1.2450753   -6.1855064 
C     1.5766812    0.0844216   -6.1553966 
C     2.3726183    0.5542302   -5.1692404 
H     3.0075036   -2.2626324   -3.5093683 
H     1.5742357   -3.1393695   -5.2648306 
H     0.6492746   -1.6443872   -6.9679295 
H     1.1789484    0.7576584   -6.9072627 
N     2.7871294    1.9015885   -5.0187874 
C     3.6016400    1.9289943   -3.7989150 
H     2.5599691    2.6960729   -5.6598939 
H     3.8329582    3.0126301   -3.8816167 
