48
Energy =
C     1.5268800    4.3020331    2.2950453 
C     1.1509947    3.0033489    2.4089238 
C     2.7822571    4.6165231    1.8787492 
C     3.6515716    3.6281111    1.5713730 
C     3.2837632    2.3259762    1.6918097 
C     2.0306975    2.0057673    2.1179216 
H     0.1414165    2.7686549    2.7371489 
H     4.6422830    3.8979310    1.2177959 
H     3.9947840    1.5446797    1.4342251 
H     0.8208138    5.0889240    2.5377459 
C     1.5980995    0.5591228    2.2305481 
C     0.9444169    0.0558318    0.9233741 
H     0.8797198    0.4617303    3.0740923 
H     2.4631218   -0.0915959    2.4949857 
C     1.9861665   -0.1704793   -0.1632360 
O     3.2035879    5.9446552    1.7630238 
H     2.4862792    6.6271068    1.9809650 
O     2.9114357   -1.2012366   -0.0038811 
N     0.1883956   -1.1787804    1.1826012 
H     0.2296367    0.8235673    0.5470939 
H     0.8352926   -1.9188492    1.5501769 
H    -0.5458021   -1.0066486    1.9085022 
N     2.2418855    0.8588783   -1.1353027 
C     3.6148724    0.9838160   -1.6703210 
H     1.4763015    1.5233735   -1.3850111 
C     4.1193536    2.4215165   -1.6556439 
O     5.3689191    2.6808892   -1.1066094 
O     3.3839569    3.4955932   -2.1539506 
H     2.5105812    3.2004668   -2.5589764 
C     3.7068870    0.3058998   -3.0537762 
H     4.3389040    0.4538917   -1.0067338 
C     2.7448161    0.8748703   -4.0726844 
H     3.4878651   -0.7786222   -2.9220688 
H     4.7498649    0.3602718   -3.4348684 
C     2.9877286    1.8517790   -4.9608929 
C     4.1174574    2.5737772   -5.1757869 
C     4.0978802    3.5359310   -6.1423295 
C     2.9628048    3.7600442   -6.8714462 
C     1.8388431    3.0255925   -6.6350786 
C     1.8833920    2.0797711   -5.6734145 
H     5.0147095    2.4117179   -4.5853449 
H     4.9873404    4.1333989   -6.3270086 
H     2.9544009    4.5314180   -7.6371092 
H     0.9280305    3.1953186   -7.1987380 
N     0.8266196    1.2261888   -5.2587489 
C     1.4684587    0.4794691   -4.2168124 
H    -0.1542407    1.1658155   -5.6154992 
H     0.9863635   -0.2942929   -3.6215617 
