48
Energy =
C     3.5965392   -2.2724896   -9.3672926 
C     3.6746295   -1.5945248   -8.1939618 
C     2.7996615   -3.3696109   -9.4715988 
C     2.0854329   -3.7808442   -8.3995653 
C     2.1593065   -3.1069772   -7.2240938 
C     2.9579797   -2.0103307   -7.1136395 
H     4.3148633   -0.7184910   -8.1288128 
H     1.4532887   -4.6566069   -8.4959950 
H     1.5757582   -3.4523515   -6.3741904 
H     4.1725338   -1.9348981  -10.2222722 
C     3.0259095   -1.2493602   -5.8090741 
C     1.7947028   -0.3336299   -5.6082432 
H     3.9625408   -0.6519321   -5.7555550 
H     3.0846417   -1.9846982   -4.9723951 
C     1.7214707    0.1866269   -4.1818677 
O     2.6955871   -4.0896104  -10.6661584 
H     3.2650152   -3.7208843  -11.4199967 
O     1.3823393   -0.6906659   -3.1580404 
N     1.7966363    0.7653089   -6.5899980 
H     0.8626568   -0.9345501   -5.7338523 
H     2.7256938    1.2516172   -6.5864597 
H     1.6543182    0.3751841   -7.5514136 
N     2.0788271    1.5372301   -3.8604026 
C     3.1070883    1.7500315   -2.8231396 
H     1.6535548    2.3165157   -4.4135666 
C     3.2201540    3.2325981   -2.4730600 
O     3.1946684    4.1833870   -3.4890137 
O     3.4110929    3.6669713   -1.1599342 
H     3.4869740    2.8980503   -0.5103233 
C     4.4630290    1.1799756   -3.2951152 
H     2.7906045    1.2126666   -1.9008658 
C     5.5376903    1.3286286   -2.2403262 
H     4.7741724    1.6649012   -4.2454938 
H     4.3495777    0.0959105   -3.5059702 
C     6.4159651    2.3365804   -2.1140715 
C     6.5899097    3.4439490   -2.8806062 
C     7.5588478    4.3346538   -2.5225467 
C     8.3305355    4.1084645   -1.4163983 
C     8.1356374    2.9912666   -0.6596139 
C     7.1710811    2.1249046   -1.0346751 
H     5.9673260    3.6335028   -3.7506174 
H     7.7106821    5.2339258   -3.1150586 
H     9.0966193    4.8264098   -1.1346514 
H     8.7329292    2.8010021    0.2253707 
N     6.7969576    0.9204637   -0.3800933 
C     5.7279533    0.4712503   -1.2219720 
H     7.1955010    0.4816481    0.4812724 
H     5.1446822   -0.4297730   -1.0458925 
