48
Energy =
C     4.2761715   -2.3706826    1.3458450 
C     3.1732815   -1.5919011    1.4770220 
C     5.4996465   -1.8867109    1.6874021 
C     5.6094711   -0.6282549    2.1706835 
C     4.5084155    0.1526563    2.3128669 
C     3.2822022   -0.3271261    1.9699943 
H     2.2047417   -1.9756704    1.1590322 
H     6.5921767   -0.2485091    2.4295906 
H     4.6210346    1.1701431    2.6802968 
H     4.1817242   -3.3743095    0.9468965 
C     2.0649126    0.5671307    2.0489434 
C     1.9404504    1.4644822    0.7966573 
H     2.1326402    1.2036278    2.9588672 
H     1.1411568   -0.0445973    2.1626137 
C     1.8977126    0.6439645   -0.4845928 
O     6.6580770   -2.6560187    1.5389259 
H     6.4896819   -3.5898923    1.1827745 
O     0.9670367   -0.3801162   -0.6293112 
N     0.7473997    2.3180823    0.9113707 
H     2.8427040    2.1187881    0.7286314 
H    -0.1124122    1.7201333    0.9717619 
H     0.7999366    2.8915861    1.7860218 
N     2.6994979    1.0078315   -1.6118223 
C     4.1568561    0.8036672   -1.5106587 
H     2.2145427    1.3555180   -2.4681837 
C     4.8747459    2.1419941   -1.4264745 
O     5.4894876    2.5031917   -0.2340124 
O     4.9123173    3.0322578   -2.4989203 
H     4.3834171    2.6910354   -3.2865566 
C     4.6517094   -0.0539783   -2.6988605 
H     4.4226972    0.2770580   -0.5653448 
C     4.5373569   -1.5347714   -2.4029959 
H     5.7212965    0.1750967   -2.9142530 
H     4.0931211    0.1930688   -3.6275307 
C     3.4578714   -2.3170279   -2.5644044 
C     2.2229199   -2.0135788   -3.0370373 
C     1.2844209   -3.0020946   -3.0838983 
C     1.5925895   -4.2675922   -2.6676867 
C     2.8410068   -4.5514150   -2.2001680 
C     3.7505471   -3.5554194   -2.1615493 
H     1.9716190   -1.0086462   -3.3574212 
H     0.2836880   -2.7784202   -3.4455587 
H     0.8377834   -5.0490729   -2.7062113 
H     3.1015078   -5.5496599   -1.8647385 
N     5.0913298   -3.6382403   -1.7014619 
C     5.5242854   -2.2822682   -1.8752538 
H     5.6153661   -4.4590660   -1.3199355 
H     6.5089034   -1.9108038   -1.5940280 
