48
Energy =
C     2.2603089    6.5154263   -2.0619709 
C     2.2923378    6.2184882   -0.7374828 
C     1.5424707    5.7411983   -2.9197246 
C     0.8552523    4.6791038   -2.4441720 
C     0.8846284    4.3771579   -1.1224302 
C     1.6103005    5.1412665   -0.2589354 
H     2.8746538    6.8448180   -0.0673601 
H     0.2838144    4.0713866   -3.1364567 
H     0.3253315    3.5178012   -0.7624957 
H     2.8163007    7.3689236   -2.4340772 
C     1.6625581    4.7896474    1.2156408 
C     2.8047732    3.8047965    1.5818402 
H     0.6901610    4.3391294    1.5193230 
H     1.7584048    5.7165289    1.8228538 
C     2.7474069    2.5076959    0.7813574 
O     1.4906399    6.0153270   -4.2907448 
H     2.0640990    6.8039080   -4.5699299 
O     1.5461677    1.8061295    0.7528449 
N     4.1184205    4.4646059    1.4973587 
H     2.6485903    3.4910273    2.6383656 
H     4.2938169    4.8055647    0.5225230 
H     4.1302686    5.3051473    2.1199292 
N     3.9476883    1.7802352    0.4785566 
C     4.3981557    1.7126700   -0.9259414 
H     4.4686596    1.3259589    1.2607445 
C     4.9668047    3.0498192   -1.3987433 
O     4.1912176    3.9135236   -2.1625661 
O     6.2352718    3.4760305   -1.0052432 
H     6.6724638    2.8131643   -0.3815821 
C     3.2623381    1.1715207   -1.8256211 
H     5.2398933    0.9866948   -0.9798909 
C     3.7557967    0.8316888   -3.2147218 
H     2.4378661    1.9151865   -1.8937270 
H     2.8193845    0.2647229   -1.3579421 
C     4.3835311   -0.2936524   -3.5887838 
C     4.7076604   -1.3922249   -2.8596705 
C     5.3607085   -2.4141261   -3.4838997 
C     5.6780141   -2.3227011   -4.8111273 
C     5.3442525   -1.2082380   -5.5222683 
C     4.6966758   -0.2118529   -4.8826194 
H     4.4578035   -1.4646482   -1.8052846 
H     5.6308164   -3.3054715   -2.9231908 
H     6.1996194   -3.1407552   -5.3011362 
H     5.5913782   -1.1180546   -6.5744881 
N     4.2715644    1.0277462   -5.4306632 
C     3.6766367    1.6474302   -4.2817398 
H     4.3640679    1.3892924   -6.4074373 
H     3.2467891    2.6493334   -4.2733806 
