48
Energy =
C     1.8524943    7.1184150   -2.8318220 
C     2.8881102    6.5048374   -2.1996714 
C     0.8082361    6.3849708   -3.3080902 
C     0.8092175    5.0414664   -3.1530667 
C     1.8437629    4.4358491   -2.5219854 
C     2.8819669    5.1538046   -2.0281062 
H     3.7199523    7.1033050   -1.8368035 
H    -0.0201114    4.4588830   -3.5402246 
H     1.9325255    3.2768398   -2.3363586 
H     1.8633788    8.1958922   -2.9597180 
C     4.0554493    4.4424979   -1.3621420 
C     3.6666168    3.1799246   -0.5262486 
H     4.5717689    5.1593235   -0.6869690 
H     4.7984777    4.1648707   -2.1473846 
C     3.1419410    2.0009483   -1.3881437 
O    -0.2731386    6.9858121   -3.9574800 
H    -0.1930818    7.9925448   -4.0511478 
O     2.0018097    2.1913864   -2.1707679 
N     4.7982227    2.7962025    0.3368679 
H     2.8059389    3.4454231    0.1325323 
H     5.6840282    2.7499159   -0.2240189 
H     4.9470847    3.5285852    1.0715684 
N     3.7311483    0.6852425   -1.3620090 
C     4.5894844    0.4104411   -2.5422720 
H     4.2831644    0.5754825   -0.4842878 
C     5.4552581    1.6005544   -2.9586192 
O     4.9737814    2.5248241   -3.8763285 
O     6.6805138    1.8630940   -2.3495794 
H     6.9756967    1.1112612   -1.7433285 
C     3.7252197   -0.1126440   -3.7110970 
H     5.3072938   -0.3999083   -2.2811201 
C     3.2701023   -1.5363367   -3.4728363 
H     4.3137064   -0.0809895   -4.6554601 
H     2.8558431    0.5580977   -3.8805752 
C     2.1364408   -1.9428874   -2.8782667 
C     1.1035874   -1.2183040   -2.3780356 
C     0.0550042   -1.8842705   -1.8147866 
C     0.0538185   -3.2505214   -1.7601368 
C     1.1019677   -3.9586262   -2.2683758 
C     2.1271312   -3.2761856   -2.8208921 
H     1.1025209   -0.1349805   -2.4200111 
H    -0.7829994   -1.3240721   -1.4075906 
H    -0.7853387   -3.7740624   -1.3096707 
H     1.1180251   -5.0423755   -2.2323835 
N     3.3070638   -3.8189013   -3.3962564 
C     3.9948395   -2.6243912   -3.7883160 
H     3.5944045   -4.8185506   -3.5009970 
H     4.9724883   -2.6065800   -4.2645460 
