48
Energy =
C    -1.6897516    2.2501984    3.0369174 
C    -0.4817306    2.1243977    2.4313397 
C    -2.8323397    2.1940203    2.3013060 
C    -2.7572398    2.0121835    0.9631039 
C    -1.5520031    1.8845280    0.3527825 
C    -0.4056989    1.9441554    1.0841038 
H     0.4240529    2.1638093    3.0316445 
H    -3.6747493    1.9702711    0.3866641 
H    -1.5113413    1.7386801   -0.7239863 
H    -1.7394341    2.3936306    4.1107577 
C     0.9364013    1.7829524    0.4057585 
C     1.3042737    0.2981157    0.1978118 
H     1.7363009    2.2783383    1.0010958 
H     0.9023633    2.3176838   -0.5712362 
C     2.4829090    0.1670289   -0.7612703 
O    -4.0931950    2.3168193    2.8947723 
H    -4.0634369    2.4616541    3.8979307 
O     3.6672089   -0.4552534   -0.3797452 
N     1.5868743   -0.3084033    1.5100921 
H     0.4539774   -0.2325923   -0.2916792 
H     0.6865550   -0.4413516    2.0271191 
H     1.9809622   -1.2700750    1.3742860 
N     2.3632034    0.6450440   -2.1045701 
C     3.2964460    1.7056220   -2.5240962 
H     1.6316993    0.2509503   -2.7387483 
C     2.5362596    2.8986421   -3.1020310 
O     1.3111449    2.7053612   -3.7297919 
O     3.0584554    4.1919450   -3.0387246 
H     3.9573898    4.2282253   -2.5838578 
C     4.3642078    1.0805729   -3.4702108 
H     3.8246746    2.1165693   -1.6316144 
C     4.5105831    1.7697865   -4.8123047 
H     4.1420454    0.0036943   -3.6461378 
H     5.3476602    1.0753713   -2.9502439 
C     3.7521153    1.5731840   -5.9021231 
C     2.7034407    0.7324438   -6.0916710 
C     2.0875795    0.7291623   -7.3085810 
C     2.5233080    1.5577640   -8.3056056 
C     3.5764747    2.3966025   -8.0905827 
C     4.1697573    2.3802357   -6.8784513 
H     2.3468890    0.0859561   -5.2959797 
H     1.2398039    0.0713044   -7.4830330 
H     2.0225999    1.5539647   -9.2704118 
H     3.9286348    3.0663360   -8.8675439 
N     5.2645349    3.1767545   -6.4465612 
C     5.4151480    2.7243435   -5.0929431 
H     5.8130120    3.8869778   -6.9840841 
H     6.1432858    3.1180776   -4.3867801 
