48
 energy: -9.185572338845 gnorm: 0.000911303260 xtb: 6.6.0 (2ccbbd7)
C            2.68200505519725        5.03239874055958       -0.36841365814051
C            2.07205314560520        3.84796934007267       -0.03653379298750
C            1.96886684326458        6.03079539186716       -1.03090540070971
C            0.62861100864524        5.79163184968581       -1.33631000925778
C            0.02775059364436        4.60224793928851       -0.99551639389554
C            0.73897261772542        3.61095521113563       -0.33488857573397
H            2.64657510686427        3.06616212915456        0.42719682282905
H            0.07939070579085        6.55765036295581       -1.85328717913138
H           -1.00605425822587        4.43223090154101       -1.24208771255927
H            3.72332143835316        5.18300553658312       -0.14574811243819
C            0.08747678552954        2.31403207929861        0.05132532427670
C            0.57828535059530        1.09896512896035       -0.75117066747433
H           -0.99835622271372        2.40600325329198       -0.05014457642442
H            0.27189677393588        2.12487712855879        1.11320791398734
C            2.01034434536923        0.79386300707911       -0.45222025513558
O            2.56178616865039        7.22039099665411       -1.41302089096374
H            3.49056165724292        7.24785310813354       -1.09510986836970
O            2.52706876341719        1.09147639234169        0.81819298001859
N           -0.24272276087741       -0.08309430143100       -0.51369762431425
H            0.50650452896129        1.34205482142546       -1.82319643323009
H           -0.11351781736683       -0.38621233716767        0.44252585082747
H           -1.22520391593188        0.12862666346639       -0.63639357502530
N            2.83369048915433        0.24524473381810       -1.42098660078635
C            4.28486188035646        0.46773798121943       -1.38777771490158
H            2.48446435761787        0.23034959070524       -2.37425952609698
C            4.59100883271907        1.69794689745252       -0.56036028619844
O            5.26055875054028        2.61679032339532       -1.02504697685846
O            4.04590399450678        1.68888691831360        0.74017299812085
H            3.58640957790160        0.66005283665668        0.98909987095762
C            4.90251620553083        0.54525993983018       -2.80969506290822
H            4.71953503906610       -0.38725515966710       -0.84789443729961
C            3.92993777030577        0.98617435802214       -3.85230759092746
H            5.30386688078191       -0.43137093456807       -3.10222072739387
H            5.75713714718031        1.23011142313001       -2.79472673806448
C            3.35446147164152        2.28420565337791       -3.99547867488280
C            3.58939056729287        3.51004501320217       -3.35221823936037
C            2.85226601070763        4.59918308035647       -3.72433773339078
C            1.86298429120695        4.50325322822366       -4.71583648227041
C            1.60243592275017        3.31567889359985       -5.34280392918789
C            2.35352610161885        2.18997180675550       -4.98172404025070
H            4.31188794998016        3.55622951067358       -2.55700003299776
H            3.00999146269355        5.54299777270110       -3.22979775132660
H            1.29300052292647        5.37960393492824       -4.97694249181314
H            0.84004553898776        3.23019589056139       -6.09618651084966
N            2.31060880740242        0.87311929518204       -5.40426769582902
C            3.26864443953221        0.15869037674688       -4.72849727049781
H            1.67704250419018        0.51249870214172       -6.12019737132575
H            3.43824966330001       -0.90012012675201       -4.83961086281314
