48
Energy =
C    -0.0202919    4.7121499   -2.8914410 
C    -0.1041218    3.3758620   -3.1155996 
C    -0.8786556    5.3162078   -2.0298678 
C    -1.8129672    4.5767601   -1.3906726 
C    -1.8877909    3.2367985   -1.5934050 
C    -1.0302250    2.6259124   -2.4570847 
H     0.6042438    2.9075213   -3.7989841 
H    -2.4898867    5.0700466   -0.7023055 
H    -2.6315482    2.6591074   -1.0519458 
H     0.7556706    5.2906926   -3.3805099 
C    -1.0833004    1.1234483   -2.6537817 
C     0.0512069    0.3594204   -1.9198849 
H    -1.0349706    0.8990865   -3.7440218 
H    -2.0630335    0.7242814   -2.3120897 
C     1.4167343    0.6191753   -2.5381967 
O    -0.8234620    6.6921651   -1.7827589 
H    -0.0430089    7.1604058   -2.2303197 
O     1.5327606    0.5064708   -3.9170439 
N     0.0224924    0.6342707   -0.4718463 
H    -0.1159504   -0.7305128   -2.0774022 
H     0.2243425    1.6491082   -0.3062277 
H    -0.9391986    0.4535563   -0.1001505 
N     2.6066064    0.5130547   -1.7423422 
C     3.5841640    1.6229250   -1.7414098 
H     2.7665392   -0.3731356   -1.2169950 
C     2.9693532    3.0062184   -1.9844295 
O     3.1022957    3.6483883   -3.2100029 
O     2.2634163    3.6661209   -0.9809103 
H     2.1902078    3.1056075   -0.1454604 
C     4.8052099    1.3015449   -2.6366156 
H     3.9915625    1.6925124   -0.7092738 
C     4.4674731    0.8989853   -4.0599680 
H     5.3945863    0.4906988   -2.1602680 
H     5.4788989    2.1867928   -2.6612451 
C     4.2701585   -0.3488919   -4.5198490 
C     4.2730475   -1.5347250   -3.8562576 
C     4.0529381   -2.6774381   -4.5676510 
C     3.8386201   -2.6203657   -5.9166874 
C     3.8428183   -1.4202540   -6.5629180 
C     4.0605773   -0.3033245   -5.8376382 
H     4.4349902   -1.5836819   -2.7851493 
H     4.0429007   -3.6382960   -4.0591645 
H     3.6604205   -3.5349353   -6.4767534 
H     3.6733441   -1.3572620   -7.6325015 
N     4.1206346    1.0315274   -6.3196523 
C     4.3832909    1.7469331   -5.1025475 
H     4.0252832    1.3889675   -7.2980851 
H     4.4982167    2.8274865   -5.0349209 
