48
 energy: -9.276022240909 gnorm: 0.000661868108 xtb: 6.6.0 (2ccbbd7)
C            1.11399529080454       -0.67510929449311        5.09947284113819
C            2.07667715145055       -0.19813775260921        4.24134526221294
C           -0.15890058583524       -0.99885270915341        4.63033648389970
C           -0.42537874337000       -0.81834149580668        3.27391276403815
C            0.54302390939047       -0.33931136991611        2.42552992435265
C            1.81016114564631       -0.01944654919726        2.88990998970624
H            3.05805068003053        0.03629034369510        4.61670990975209
H           -1.40830414942556       -1.05935927679121        2.91012781490592
H            0.31214819076981       -0.18207423593472        1.38743888191388
H            1.33583080459170       -0.80889811342914        6.14315443122034
C            2.89588639502462        0.45206425716650        1.96576323869991
C            2.50047376286775        1.58973982939167        1.00256621862445
H            3.25820142431894       -0.40391745014614        1.38834683216331
H            3.74649683187460        0.78079196990821        2.57226481700688
C            1.74269797078796        1.06730587530547       -0.19743055952379
O           -1.14642802963847       -1.48759182667073        5.46437246231671
H           -0.80796664015960       -1.55338512026641        6.38345934865415
O            0.52997026668295        1.05312251408213       -0.15019952448144
N            1.70429317137697        2.62037019116108        1.65622150262929
H            3.40672947196463        2.09228030500698        0.62713889473352
H            0.72302672880130        2.35817992199689        1.59755859820451
H            1.95810479540824        2.72142065155629        2.63241426372457
N            2.42105787552903        0.59061705694061       -1.29956352860065
C            3.87869773063500        0.59997512894711       -1.46678260165262
H            1.90369351447078        0.45729996109794       -2.16547569159342
C            4.41935149865755        2.01143041166726       -1.57028553525294
O            3.65237973770532        2.93041693324580       -1.75626480436880
O            5.76875293408247        2.14512777838422       -1.47314408314650
H            6.19993907302757        1.28103796975839       -1.28922196880384
C            4.28340019302542       -0.23059761222360       -2.69190440160672
H            4.30920946228386        0.14596409041480       -0.56372325051151
C            3.57881292478526        0.17745983739826       -3.94314391987409
H            4.06889571664188       -1.28713145769358       -2.50031085634823
H            5.36386100333424       -0.16483782680170       -2.85213588488960
C            3.78823687453483        1.36445493358159       -4.70893862298853
C            4.65801818545473        2.46066049249046       -4.56950601405759
C            4.60287677691027        3.46809050551412       -5.49135223797606
C            3.69919541834936        3.42157078897185       -6.56487770924704
C            2.83617765685272        2.37144891810844       -6.71745265205750
C            2.87463657267107        1.33129121101154       -5.78042250559886
H            5.30675054496395        2.52237616606682       -3.71335745584969
H            5.25127757618436        4.32185889306438       -5.38355550398975
H            3.67938833291482        4.23336421174614       -7.27302971068892
H            2.13314126216270        2.33168794536309       -7.53003874474263
N            2.13327594553083        0.16991182437270       -5.66021417340474
C            2.55901561232787       -0.51411378457584       -4.54970162227432
H            1.36942936719284       -0.09994988539530       -6.28277560080541
H            2.14496543220328       -1.44849851533375       -4.20636895649022
