48
Energy =
C    -3.6278807    2.1588217    1.1432260 
C    -2.3793923    1.7296611    1.4567010 
C    -3.7983293    3.3093608    0.4385807 
C    -2.7163851    4.0231502    0.0523666 
C    -1.4653586    3.5983922    0.3627044 
C    -1.2897058    2.4491725    1.0704794 
H    -2.2589890    0.8049450    2.0148442 
H    -2.8658321    4.9388742   -0.5090868 
H    -0.6070661    4.1842683    0.0425937 
H    -4.4888436    1.5782088    1.4560132 
C     0.1056748    1.9667065    1.3985286 
C     0.7828616    1.2699698    0.1921666 
H     0.0944396    1.2787086    2.2717573 
H     0.7165876    2.8431405    1.7156604 
C     2.2619052    1.0243433    0.4472409 
O    -5.0710923    3.7782450    0.0970206 
H    -5.8286389    3.1921803    0.4302583 
O     2.9398609    1.9070482    0.9939662 
N     0.0785924    0.0164969   -0.1367611 
H     0.7666970    1.9546712   -0.6877064 
H    -0.0160186   -0.5745790    0.7227464 
H    -0.8876543    0.2343320   -0.4755420 
N     2.9477614   -0.0468663   -0.2223343 
C     4.2548855    0.3176804   -0.7951215 
H     2.5158450   -0.9961002   -0.2899424 
C     4.7175344    1.6569664   -0.2242799 
O     5.8426046    2.2900392   -0.7438806 
O     4.0879858    2.1833531    0.7051724 
H     3.7762312    1.6150533    1.4658731 
C     4.1379140    0.3666632   -2.3320449 
H     5.0185714   -0.4311238   -0.4914594 
C     3.9118698   -1.0085207   -2.9189896 
H     5.0709907    0.7912457   -2.7683389 
H     3.3169897    1.0571336   -2.6237409 
C     2.7327083   -1.5922121   -3.1884900 
C     1.4694095   -1.1200641   -3.0322375 
C     0.4269281   -1.9301373   -3.3736385 
C     0.6594693   -3.1855753   -3.8633670 
C     1.9366476   -3.6393502   -4.0112423 
C     2.9509653   -2.8189786   -3.6650480 
H     1.2812787   -0.1285326   -2.6324513 
H    -0.5937217   -1.5763123   -3.2493057 
H    -0.1769093   -3.8259709   -4.1317989 
H     2.1389481   -4.6340693   -4.3934269 
N     4.3419642   -3.1010101   -3.7247468 
C     4.8924683   -1.8785509   -3.2175246 
H     4.8292824   -3.9675407   -4.0491447 
H     5.9560634   -1.6909103   -3.0859602 
