48
Energy =
C    -1.4616743   -1.0971887    0.5209956 
C    -0.4356066   -0.6244076   -0.2296160 
C    -2.7356410   -1.0383960    0.0496894 
C    -2.9728491   -0.5045702   -1.1703214 
C    -1.9490838   -0.0307737   -1.9253068 
C    -0.6715368   -0.0921318   -1.4596718 
H     0.5757336   -0.6734875    0.1600458 
H    -3.9936128   -0.4616164   -1.5341303 
H    -2.1613163    0.3959522   -2.9018908 
H    -1.2599999   -1.5214689    1.4984381 
C     0.4774846    0.4324238   -2.2925379 
C     1.0651529    1.7484304   -1.7262666 
H     0.1657606    0.5880778   -3.3497578 
H     1.2640844   -0.3535316   -2.3189202 
C     2.3596993    2.1278069   -2.4398346 
O    -3.8164724   -1.5171869    0.7971421 
H    -3.5575135   -1.8925468    1.7027265 
O     2.4165140    3.2570886   -3.2484582 
N     0.0703532    2.8315026   -1.8051267 
H     1.3432600    1.6035616   -0.6593557 
H    -0.2383643    2.9633659   -2.7979409 
H    -0.7756209    2.5899905   -1.2380191 
N     3.4584276    1.2068192   -2.4885825 
C     4.2665643    1.0366093   -1.2648591 
H     3.5999785    0.6515179   -3.3625082 
C     5.2860690    2.1603332   -1.0860810 
O     5.5389017    2.6351199    0.1958068 
O     6.0370254    2.6644216   -2.1481977 
H     5.7239789    2.2875204   -3.0307144 
C     4.9639856   -0.3401318   -1.2940078 
H     3.6146851    1.0758569   -0.3641710 
C     3.9612045   -1.4725345   -1.2713844 
H     5.6456756   -0.4450519   -0.4194782 
H     5.6028089   -0.4185467   -2.2025787 
C     3.2837934   -1.9254597   -0.2049553 
C     3.3366795   -1.5289403    1.0927280 
C     2.5249264   -2.1530108    1.9941986 
C     1.6815190   -3.1509858    1.5894734 
C     1.6451479   -3.5313050    0.2805474 
C     2.4597590   -2.9008055   -0.5912968 
H     4.0074922   -0.7378635    1.4158152 
H     2.5505553   -1.8567805    3.0405169 
H     1.0379484   -3.6443959    2.3137640 
H     0.9795506   -4.3181702   -0.0583862 
N     2.5673146   -3.1330145   -1.9882506 
C     3.5614272   -2.1659243   -2.3517517 
H     2.0563991   -3.8220084   -2.5870482 
H     3.9249659   -2.0087048   -3.3646449 
