48
Energy =
C     3.6962617    2.2606914    4.9198259 
C     2.8950490    2.1950817    3.8264889 
C     4.9233344    2.8414352    4.8349000 
C     5.3413886    3.3529048    3.6546368 
C     4.5442979    3.2906508    2.5581926 
C     3.3126171    2.7152852    2.6403905 
H     1.9187363    1.7237060    3.9079916 
H     6.3238724    3.8099660    3.5992115 
H     4.8973735    3.6955918    1.6096062 
H     3.3537738    1.8454875    5.8616166 
C     2.4334394    2.6256716    1.4144686 
C     2.5369954    1.2561834    0.7084670 
H     2.7079840    3.4303722    0.6951235 
H     1.3770714    2.8246967    1.7017483 
C     1.5985614    1.2037454   -0.4895263 
O     5.7740341    2.9224998    5.9412852 
H     5.3868147    2.5238070    6.7896666 
O     0.6079140    0.2292780   -0.5338305 
N     3.9322920    1.0086708    0.3053233 
H     2.1962091    0.4545881    1.4070986 
H     4.5027729    0.7823864    1.1535633 
H     3.9745260    0.1466390   -0.2892666 
N     1.5504152    2.2797262   -1.4349386 
C     2.5684674    2.2945247   -2.4981738 
H     0.8188328    3.0201009   -1.3473379 
C     3.3256707    3.6410746   -2.5241983 
O     3.3156968    4.4656724   -1.3993591 
O     4.1079440    4.0427900   -3.6229906 
H     3.9193109    3.4055021   -4.5146923 
C     1.8673461    1.9386774   -3.8324557 
H     3.3344100    1.5117562   -2.2981194 
C     2.8841724    1.6244526   -4.9030083 
H     1.2381954    2.7944506   -4.1609302 
H     1.1842301    1.0751580   -3.6841932 
C     3.5116433    0.4549789   -5.0716035 
C     3.1634872   -0.7761415   -4.6121959 
C     3.9926960   -1.8260346   -4.8707336 
C     5.1561285   -1.6313522   -5.5581457 
C     5.4985110   -0.3842294   -5.9849440 
C     4.6555511    0.6404343   -5.7308912 
H     2.2473451   -0.9371866   -4.0506241 
H     3.7318645   -2.8214149   -4.5193939 
H     5.8191400   -2.4707917   -5.7510537 
H     6.4348666   -0.2091517   -6.5048263 
N     4.8997965    2.0115848   -6.0200536 
C     3.7269736    2.7135479   -5.4942052 
H     5.7226263    2.4226811   -6.5164417 
H     3.1852591    3.2696122   -6.2874547 
