48
 energy: -9.067625624588 gnorm: 0.000996800182 xtb: 6.6.0 (2ccbbd7)
C           -2.46181928259177        0.94454319931001        3.32163351070615
C           -1.21557401096271        0.96265547686485        2.74121613470786
C           -3.48534410124913        1.75718479299522        2.83234819085848
C           -3.20918479315235        2.58316501551008        1.74267668383576
C           -1.96070398986684        2.59567792064413        1.16780302724641
C           -0.94458285332457        1.78918976515546        1.65918905974279
H           -0.43475259715414        0.32782833983319        3.12447793482666
H           -3.99886714677290        3.20716428635325        1.36359003879505
H           -1.76208848520832        3.23287099179171        0.32281241968920
H           -2.66043179171153        0.30146391781220        4.16055245577908
C            0.39805192543997        1.77067566162203        0.99763330486831
C            0.39305542679162        1.03243010640512       -0.34350474702631
H            1.13034682272631        1.29462261359340        1.65622422861449
H            0.75181640868277        2.79696917848455        0.85501666891649
C            1.77382579795851        1.04545318774803       -0.94940838587231
O           -4.74876613671053        1.76204355833216        3.39252122347835
H           -4.78391490712765        1.13456998669187        4.14712422716823
O            2.56866711034290        0.21373026125647       -0.56487246063472
N           -0.03131152398674       -0.35249586395277       -0.21229313168175
H           -0.30467528968067        1.53059936159888       -1.03355617066792
H            0.76374483510207       -0.88177542204815        0.13420504184882
H           -0.78650533312529       -0.43353542033037        0.45694210370469
N            2.06911076041290        2.01049049505534       -1.88728319896348
C            3.44472681846434        2.22381611378805       -2.32738054028800
H            1.46225739889371        2.82577908062853       -1.99079685821223
C            3.49234167755106        3.33840452292586       -3.32982481922017
O            4.54603151863002        4.20494257936918       -3.30814556282886
O            2.46845099694958        3.41634907882481       -4.24448639943980
H            1.85477181111816        2.65336391579699       -4.12591095755973
C            4.07185242983024        0.93284369287466       -2.88757417007979
H            4.00716710824546        2.52946005381373       -1.43297537554165
C            5.52663465748078        0.75525244283017       -2.58477727911215
H            3.90710924427494        0.88245282279832       -3.96820640414638
H            3.52999300851880        0.08086129467961       -2.46178339303645
C            6.54955780731386        1.74982271073238       -2.51075359869862
C            6.55486108778899        3.14090790046376       -2.67574435828327
C            7.72141688773821        3.82858965584579       -2.52457417686217
C            8.91684752956886        3.16445703976447       -2.20465736532703
C            8.94524270314054        1.80690290820511       -2.03868874190060
C            7.75310209649024        1.08735021462577       -2.19303805434635
H            5.50999565618256        3.70811112941378       -2.98602075897816
H            7.72444935870152        4.89771502282482       -2.65661927301535
H            9.82372771825218        3.73484974258691       -2.09074114192256
H            9.85426098361571        1.28698419686588       -1.79490571586467
N            7.47003953681800       -0.26204467689782       -2.09232952794539
C            6.13127729224982       -0.45094325382313       -2.32787277976349
H            8.15384561246018       -0.98552276289066       -1.86253912156944
H            5.63008837101352       -1.40496079832747       -2.29395782140732
