48
 energy: -9.293950878845 gnorm: 0.000941925423 xtb: 6.6.0 (2ccbbd7)
C           -1.17389178219115       -4.69044684442258        0.51031355250855
C           -0.51953302601118       -3.57036793632483        0.05484700534964
C           -1.07289011092314       -5.90058393355945       -0.17688041688087
C           -0.29435053567627       -5.94056248084770       -1.33322729612796
C            0.35719928279759       -4.81676072240335       -1.78197016402392
C            0.25096246379961       -3.61459702665215       -1.09848861942719
H           -0.59970492812419       -2.64329780571771        0.59620295048448
H           -0.21577592419562       -6.87345843651879       -1.86218298327831
H            0.96086645415000       -4.86171874129886       -2.67222923685158
H           -1.76935338460875       -4.64515974968100        1.40449608512864
C            0.99949438765410       -2.40698152656882       -1.56852506226977
C            2.48971677930918       -2.45161319980758       -1.22072633717242
H            0.56321403494344       -1.50345736843661       -1.13287698305029
H            0.88126795361985       -2.29418891354596       -2.65143686003251
C            3.21450675640455       -1.25765467936368       -1.80068024474230
O           -1.71288990827611       -7.04629560382694        0.25606928305688
H           -2.22458777238439       -6.85684205480399        1.07218230072383
O            2.73385385851608       -0.64753921090516       -2.73480436591103
N            2.70974199756521       -2.52191040502243        0.21793065149474
H            2.93358474445479       -3.35450275888069       -1.66777874421772
H            2.38937171850376       -1.66429538939349        0.64752420699545
H            2.17485012344538       -3.27979230785405        0.62066227837655
N            4.40747454001726       -0.91339598589466       -1.20981725911945
C            5.19221022746101        0.26278688790067       -1.59929629772650
H            4.68728140447158       -1.36726370608869       -0.33277564915147
C            4.59257559329987        1.51692976228676       -0.99130153944656
O            5.31969539205545        2.26441520241612       -0.37356766152158
O            3.27497071881257        1.70379732046837       -1.22892560273265
H            2.95096308383909        0.93919536271556       -1.76522222278023
C            5.32373201625487        0.36895612871530       -3.11967547785707
H            6.20112918385854        0.14928076590913       -1.17564261781856
C            6.25035747068774        1.43400338705363       -3.60848717526864
H            4.33002852208681        0.53369645001199       -3.54485936378980
H            5.65049871966935       -0.59887914198285       -3.51203235560519
C            6.83124614172484        1.48817866935409       -4.90996980361222
C            6.75797627401104        0.63376769540711       -6.02340174247847
C            7.44457688277106        0.97390822915133       -7.15603973152809
C            8.21031427807907        2.14975943587733       -7.21683237244803
C            8.29573912963519        2.99643091454411       -6.14562590174119
C            7.59982689328003        2.66662991916483       -4.97581658810762
H            6.16655708478514       -0.26317839516180       -5.97408529295789
H            7.39724211657708        0.33086353070455       -8.01916756236253
H            8.73765056988660        2.38876209203556       -8.12552331638470
H            8.87692389067191        3.90023451244961       -6.18415298925634
N            7.48038270219012        3.30845822097978       -3.75606745725753
C            6.66257756642857        2.56404667096690       -2.94535419588298
H            7.92616359830677        4.19593456409683       -3.51625916733789
H            6.38368721823283        2.83568705961967       -1.94002224147329
