48
 energy: -9.062696965102 gnorm: 0.000495671127 xtb: 6.6.0 (2ccbbd7)
C            7.48633064863108        0.39421393778560        0.53493528543945
C            6.45690632231210       -0.51555901203071        0.57016015296785
C            7.28246413537055        1.71286015585167        0.94227814470433
C            6.00670012209720        2.08410435858774        1.36687148916728
C            4.98438677518884        1.16572203277918        1.40729337272183
C            5.19575604058178       -0.14919950039788        1.01802850927481
H            6.62531290456073       -1.52955178469872        0.25009089702605
H            5.84272557841296        3.10726583181298        1.65512085782408
H            3.99978763566137        1.46493449462912        1.72486028196019
H            8.46048625272706        0.09818154680940        0.18914159240540
C            4.07685108994372       -1.14331687075146        1.03654176256081
C            3.16775914448859       -1.06049312806117       -0.19629907400882
H            3.47477252176587       -0.98905826173418        1.93858296690426
H            4.49530430288838       -2.15146697188860        1.12092023429686
C            2.32268281232798        0.20424496690964       -0.15463233605278
O            8.30459190736986        2.64343321678706        0.93283632207787
H            9.14672117607534        2.21222511384469        0.66902150068225
O            1.45257318570392        0.22484860994994        0.69716525502449
N            3.90113642722800       -1.27250355448493       -1.43630719571888
H            2.42780692601221       -1.87811964555160       -0.13727319227341
H            4.69804801392613       -0.65424220312776       -1.47182226470083
H            4.27566880479113       -2.21248633567918       -1.46778227023340
N            2.47661853796897        1.30487354320602       -0.98553236367152
C            3.71865604119810        1.70167553194861       -1.66504176273318
H            1.92334398261719        2.12526693727852       -0.73224244751275
C            3.77580728369844        3.19817519786660       -1.71466074940135
O            4.97314282516139        3.82151256947876       -1.52563390446207
O            2.59798301272484        3.86235738320496       -1.97046803344214
H            1.91605221922168        3.23734585270949       -2.31158641841363
C            3.84933483066691        1.10129987026269       -3.07817360910335
H            4.55195924142780        1.35650251303319       -1.04123852472008
C            5.24796505124175        0.70643501405195       -3.43872957885333
H            3.46331720039440        1.80975652600118       -3.81761401488050
H            3.20206242186066        0.22016134919575       -3.14500672566673
C            6.46721607749428        1.35036299506058       -3.06364014010409
C            6.75990379561598        2.50757543336413       -2.33010284170551
C            8.05960934645417        2.86720514909849       -2.13827378433135
C            9.10932550235716        2.09305417896547       -2.65800745695956
C            8.85652792455593        0.95734067134590       -3.37748830328302
C            7.52407872022328        0.57793789216525       -3.58674214413668
H            5.84012627911811        3.19418025907138       -1.89043667768652
H            8.28052807016216        3.75434953375255       -1.56788237682027
H           10.12728160619797        2.40282061031856       -2.48921130021400
H            9.65167851978068        0.35942608612363       -3.78512585195169
N            6.96303933671616       -0.49113122768052       -4.26075296423797
C            5.59612029283275       -0.40160865225157       -4.17174110577758
H            7.49191748405076       -1.21257447973024       -4.75406256637227
H            4.90433481202956       -1.10998051471688       -4.59802365098373
