48
 energy: -9.174466373647 gnorm: 0.000599144110 xtb: 6.6.0 (2ccbbd7)
C           -3.48963671588640        1.00528573288637        1.31079441224032
C           -2.11710813702198        1.08626044304005        1.33654652684686
C           -4.24611506358841        1.97188295175306        0.64694920443886
C           -3.57322299072487        3.01549775559257        0.01187059819798
C           -2.20088016758839        3.08972047786026        0.04224172033337
C           -1.45263044112904        2.13049864074828        0.70875091324318
H           -1.54360106406183        0.33301128064583        1.84901170162111
H           -4.15561813685754        3.75983020756923       -0.50109590601591
H           -1.69269023460273        3.89852486642043       -0.45429632807007
H           -3.99476979609211        0.19398234592463        1.80367858476899
C            0.04256734170975        2.19989910255696        0.70800737573583
C            0.66672996484844        1.72960280211893       -0.60995150475924
H            0.44331288849659        1.59401197621348        1.52579730466369
H            0.36343457989114        3.22592810026953        0.91806904570357
C            2.14641585300529        1.92683851811519       -0.59881599222436
O           -5.62686790182168        1.91964470020572        0.60369035814297
H           -5.94857280597827        1.13989898302846        1.10631153952424
O            2.69000995967136        3.05139842232144        0.03739779837498
N            0.34153728670744        0.33862808082214       -0.90802231327662
H            0.26378245909544        2.34217672178019       -1.43209532669301
H            0.75319747160152       -0.25572997985987       -0.20082294224918
H           -0.65964723614033        0.19865417156104       -0.87040312260018
N            2.95203763498559        1.00484734842596       -1.23521476273694
C            4.34341146891112        1.29715891070133       -1.58330626685826
H            2.49989582856930        0.40959813118439       -1.93219053896542
C            4.56336248705140        2.79041397881699       -1.70829760995918
O            5.16736465373973        3.24185128944301       -2.67870857214479
O            4.06823149222094        3.58343746996226       -0.65494850084424
H            3.81752219056183        2.94085344019333        0.26854897610356
C            4.75397775923929        0.54789348582955       -2.86081718616701
H            4.96396645730903        0.95208664505014       -0.74291675195004
C            3.79243627370469        0.76328968718382       -3.98053875778703
H            4.83433982702411       -0.52459769671859       -2.65772599365047
H            5.74896191235941        0.88221580940615       -3.17279276202510
C            2.84455481975781       -0.17114627146663       -4.49584251330635
C            2.55104806706592       -1.50964311234797       -4.18167874267500
C            1.54052718958806       -2.13494001011793       -4.85864068331856
C            0.80195591411005       -1.46321683642923       -5.84670470229418
C            1.06536443545494       -0.15878614712142       -6.16429329607721
C            2.09599506593025        0.50094023415822       -5.48293854503662
H            3.11779141124200       -2.02265523484695       -3.42498495275265
H            1.30513499905004       -3.16164715730843       -4.63210718663498
H            0.01295395657407       -1.98622450422216       -6.36142074156235
H            0.50146646198717        0.36493252930555       -6.91522754964634
N            2.56886325220350        1.80032172188510       -5.55471209035650
C            3.57625231352202        1.94919692138432       -4.63467691876805
H            2.18109442321519        2.53248316281439       -6.15249994622196
H            4.08110857112532        2.87263120666540       -4.40083257689554
