48
Energy =
C     1.2846705    0.8075739   -5.5291562 
C     0.3869438    1.0403146   -4.5375308 
C     2.1904221    1.7641812   -5.8695660 
C     2.1742990    2.9569593   -5.2327330 
C     1.2747349    3.1962231   -4.2479509 
C     0.3803484    2.2355801   -3.8856073 
H    -0.3152492    0.2592457   -4.2582472 
H     2.9038563    3.7132932   -5.5025262 
H     1.2990962    4.1522171   -3.7293624 
H     1.2895042   -0.1530029   -6.0330482 
C    -0.5687391    2.4720310   -2.7286100 
C    -0.0656520    1.8095047   -1.4229493 
H    -1.5714255    2.0707472   -2.9900833 
H    -0.6971729    3.5641436   -2.5553189 
C     1.3151677    2.3056149   -1.0157724 
O     3.1623358    1.5375861   -6.8493041 
H     3.0789719    0.6367633   -7.3087707 
O     1.6117539    3.5056472   -1.1187183 
N    -1.0360850    2.0302689   -0.3407559 
H     0.0264139    0.7130340   -1.5956310 
H    -1.1338534    3.0597057   -0.1672092 
H    -1.9750363    1.6674920   -0.6271771 
N     2.3646999    1.3719269   -0.7114196 
C     3.6576843    1.7046462   -1.3353922 
H     2.1850158    0.5203754   -0.1334048 
C     3.6498006    3.1733041   -1.7874588 
O     4.6712686    3.6854651   -2.5807117 
O     2.7080192    3.9121213   -1.4548833 
H     2.3431070    3.8502205   -0.5248444 
C     3.8914507    0.7080588   -2.4894829 
H     4.4634590    1.6132884   -0.5759391 
C     5.3068734    0.7481573   -3.0222404 
H     3.1661117    0.9139078   -3.3029653 
H     3.6739494   -0.3239495   -2.1381898 
C     6.3894891    0.1934377   -2.4560445 
C     6.4988018   -0.5249515   -1.3089085 
C     7.7314259   -0.9828107   -0.9465340 
C     8.8231732   -0.7191759   -1.7269957 
C     8.6886694    0.0037607   -2.8751933 
C     7.4588273    0.4451186   -3.2124900 
H     5.6325912   -0.7340919   -0.6881206 
H     7.8468365   -1.5592433   -0.0319246 
H     9.8025475   -1.0860760   -1.4306297 
H     9.5442536    0.2232733   -3.5047466 
N     7.1041574    1.2089804   -4.3559707 
C     5.6915220    1.3663979   -4.1538722 
H     7.7051938    1.5546929   -5.1387180 
H     5.0317284    1.9356584   -4.8086198 
