48
Energy =
C     2.4856168    5.3561377    0.2522054 
C     1.7903495    4.1932359    0.1888146 
C     3.1830680    5.6758427    1.3738030 
C     3.1797519    4.8274936    2.4261451 
C     2.4942513    3.6580026    2.3649734 
C     1.7994457    3.3264971    1.2403154 
H     1.2258758    3.9759468   -0.7095834 
H     3.7387212    5.0956908    3.3161797 
H     2.5115213    2.9876759    3.2203219 
H     2.4815245    6.0296171   -0.5982285 
C     1.0648180    1.9975878    1.1679991 
C     1.9186891    0.7620867    0.7262674 
H     0.1643746    2.0983685    0.5204039 
H     0.6436513    1.7855337    2.1766166 
C     1.6009021    0.2588433   -0.6838132 
O     3.9051899    6.8693628    1.4746348 
H     3.9011861    7.4251051    0.6257864 
O     0.9107215   -0.9376408   -0.8257390 
N     3.3663552    0.9500381    0.9399916 
H     1.5968260   -0.0938820    1.3695902 
H     3.7204052    1.8230292    0.4775834 
H     3.5605089    1.0466113    1.9637219 
N     1.8062604    1.0556319   -1.8606242 
C     3.2271526    1.0915229   -2.2901939 
H     1.4017139    1.9956509   -1.6810826 
C     3.7956285    2.5082697   -2.3506820 
O     5.0187881    2.7622475   -1.7472818 
O     3.1185275    3.5718027   -2.9477507 
H     2.2885259    3.2628697   -3.4311381 
C     3.3749401    0.3207135   -3.6195281 
H     3.8919883    0.5628762   -1.5640408 
C     2.5201184    0.8772143   -4.7361640 
H     3.0753661   -0.7382120   -3.4438013 
H     4.4430271    0.2880326   -3.9265842 
C     2.8936041    1.7461222   -5.6890592 
C     4.0936601    2.3450150   -5.9015185 
C     4.2074265    3.2168067   -6.9443794 
C     3.1322779    3.4761972   -7.7487595 
C     1.9352460    2.8682427   -7.5120217 
C     1.8483047    2.0090601   -6.4749936 
H     4.9443300    2.1564670   -5.2531872 
H     5.1561323    3.7139727   -7.1313082 
H     3.2302114    4.1750711   -8.5753952 
H     1.0701721    3.0689985   -8.1345155 
N     0.6977481    1.2961383   -6.0449028 
C     1.2186331    0.5909706   -4.9102159 
H    -0.2683088    1.2923427   -6.4444331 
H     0.6370036   -0.0695831   -4.2675844 
