48
 energy: -8.885100673118 gnorm: 0.000761292590 xtb: 6.6.0 (2ccbbd7)
C            2.19944531665477       -4.02208394051358       -4.97675196287832
C            2.28862174209882       -2.65299230637707       -5.08150157249704
C            1.97599183795645       -4.63142900763814       -3.74033424869734
C            1.84662465998577       -3.81362488797209       -2.61713034162132
C            1.93831191592001       -2.45353555200569       -2.73956038638999
C            2.15238855028478       -1.84360095063321       -3.96156346499343
H            2.47210180306645       -2.19631491611770       -6.03873513977009
H            1.67895249177962       -4.27035620574929       -1.65855173452665
H            1.85792881407223       -1.68567624541255       -1.77975854604516
H            2.30568465015491       -4.63967892361351       -5.85052725576502
C            2.29695593587627       -0.35741087427079       -4.06223226318567
C            1.45000387803086        0.44029081689503       -3.06233732044678
H            2.12279661338971       -0.01591631973381       -5.08580448033412
H            3.43431320609774       -0.07110317429995       -3.75492213484447
C            2.04731448319257        0.32499437380012       -1.68500299768754
O            1.88529122819352       -6.00315043190033       -3.60334071532453
H            1.99035931702297       -6.43539996776978       -4.47842390403374
O            1.84668479704303       -0.85270151903923       -1.00955808501465
N            1.28394274988988        1.83059356792590       -3.46655189866043
H            0.44314454858462       -0.00376528858294       -3.01743193455192
H            2.21387328449559        2.23892717737281       -3.53848600198779
H            0.85907126854697        1.89652460652097       -4.38240687248410
N            2.84266913443449        1.33894730996609       -1.11114499431172
C            4.21253805408421        1.62504356133759       -1.60072856906219
H            2.84830657738823        1.30842066423103       -0.09461177315929
C            4.18150701785433        2.85155485334367       -2.49499471626850
O            4.05170282100896        2.69860505393404       -3.69041578974985
O            4.27522154119396        4.05690936534300       -1.87847816464458
H            4.31353792039492        3.95486236233199       -0.90265619121871
C            4.83263982602490        0.40876361404770       -2.29132670244428
H            4.85163804259875        1.87103081938421       -0.73995073507588
C            6.22931870584022        0.59219486412685       -2.76932560572358
H            4.12229261833645        0.13385518775076       -3.23035797609998
H            4.77240439875874       -0.46072388208712       -1.62968267135133
C            7.36618271690283       -0.19974393081974       -2.42744403228136
C            7.54328625537478       -1.30402083849420       -1.57572495200731
C            8.78946317575996       -1.85718236112894       -1.47048519365120
C            9.87787003149138       -1.34210298087314       -2.19336365084194
C            9.72917302570996       -0.26892846262366       -3.02861133393311
C            8.46108558280814        0.31303641862563       -3.15187020145974
H            6.70837623753847       -1.69714001887148       -1.02377131405190
H            8.94136186971811       -2.70435898631598       -0.82220302265234
H           10.84603696875636       -1.80277359931917       -2.08754988011290
H           10.55636220062773        0.13077743402143       -3.58741349015077
N            8.00085913266769        1.37744803430965       -3.90804812522280
C            6.65858592352992        1.53276053572485       -3.67063710136034
H            8.57551241258301        1.94393626841640       -4.53455226311194
H            6.02629321659258        2.28320547086034       -4.11606212273775
