48
Energy =
C     2.4439594    3.7476089    0.7002326 
C     2.3351027    3.5637517   -0.6407913 
C     1.3340581    3.9713307    1.4528464 
C     0.1206714    4.0088836    0.8595597 
C     0.0046574    3.8251543   -0.4772287 
C     1.1120802    3.5997364   -1.2390872 
H     3.2390729    3.3785266   -1.2194185 
H    -0.7590498    4.1875931    1.4665744 
H    -0.9823001    3.8608258   -0.9308385 
H     3.4210996    3.7129726    1.1710873 
C     0.9795248    3.3903720   -2.7327467 
C     0.7993057    1.8963794   -3.1519028 
H     1.8475647    3.8498663   -3.2984211 
H     0.1322158    3.9916030   -3.1238272 
C     1.8245000    0.8921223   -2.5797676 
O     1.4133017    4.1669783    2.8349590 
H     2.3547515    4.1148526    3.2093716 
O     1.3550408   -0.2157292   -1.8745515 
N    -0.5768040    1.4960670   -2.8351286 
H     0.9251330    1.7982286   -4.2603631 
H    -0.6998034    1.4436825   -1.7951076 
H    -1.2704125    2.1807588   -3.2143094 
N     3.2359542    1.1849528   -2.4881235 
C     3.9596610    1.3988231   -3.7710886 
H     3.6517292    0.3520032   -2.0079513 
C     3.9237309    2.8586607   -4.1713096 
O     4.6634660    3.7593998   -3.4190422 
O     2.9830392    3.3923089   -5.0560186 
H     2.5131298    2.7004008   -5.6222954 
C     3.5743828    0.3909678   -4.8897198 
H     5.0500913    1.2629478   -3.5787492 
C     3.9828927   -1.0253982   -4.5444067 
H     4.0808788    0.6867134   -5.8382270 
H     2.4952029    0.4344473   -5.1198487 
C     3.1753462   -2.0680346   -4.2824611 
C     1.8196060   -2.1497176   -4.2791033 
C     1.2408049   -3.3438772   -3.9692955 
C     2.0142627   -4.4335025   -3.6785533 
C     3.3733554   -4.3329098   -3.6973683 
C     3.9227320   -3.1382438   -4.0026861 
H     1.1903840   -1.2987635   -4.5150557 
H     0.1572853   -3.4219434   -3.9527745 
H     1.5437630   -5.3821360   -3.4316147 
H     4.0034958   -5.1869362   -3.4721272 
N     5.3068228   -2.8295403   -4.0809405 
C     5.2575582   -1.4430926   -4.4402503 
H     6.1354126   -3.4472606   -3.9188655 
H     6.1339098   -0.8206567   -4.6058357 
