48
Energy =
C     1.0311666   -0.8074748    2.9124556 
C     1.0527196   -1.7094025    1.8985909 
C     0.5489584    0.4463963    2.7019440 
C     0.0915851    0.7891153    1.4765587 
C     0.1102379   -0.1089809    0.4592672 
C     0.5953849   -1.3650257    0.6631087 
H     1.4395956   -2.7081998    2.0829452 
H    -0.2892625    1.7926737    1.3215232 
H    -0.2610881    0.1866198   -0.5195894 
H     1.3991683   -1.0922142    3.8921374 
C     0.6213807   -2.3675357   -0.4732731 
C     1.8931187   -2.2877023   -1.3534763 
H    -0.2730521   -2.2086017   -1.1174416 
H     0.5181965   -3.3991355   -0.0714812 
C     2.1042870   -0.9064658   -1.9653547 
O     0.5102559    1.3985571    3.7257087 
H     0.8826343    1.0675751    4.6087045 
O     1.2227708   -0.4956929   -2.9587948 
N     3.0734739   -2.7995750   -0.6333435 
H     1.7189724   -2.9439567   -2.2385781 
H     3.1731213   -2.2989917    0.2816118 
H     2.9232036   -3.8100567   -0.4007605 
N     2.9342053    0.0912393   -1.3503531 
C     4.4062996   -0.0517126   -1.3814636 
H     2.4566563    0.9067533   -0.9045085 
C     5.1104464    1.2392559   -0.9720473 
O     4.4847327    2.4670700   -1.1519291 
O     6.4230353    1.2289265   -0.4995993 
H     6.7837405    0.2932441   -0.3841307 
C     4.9203543   -0.5791508   -2.7484584 
H     4.6960316   -0.7882288   -0.6039791 
C     4.3987599    0.1911559   -3.9522414 
H     4.6466480   -1.6533165   -2.8165128 
H     6.0319588   -0.5559560   -2.7698417 
C     3.6994166   -0.3060866   -4.9910586 
C     3.2533619   -1.5703378   -5.2268956 
C     2.5646699   -1.8124530   -6.3786321 
C     2.3364572   -0.8046172   -7.2725375 
C     2.7959508    0.4528056   -7.0208812 
C     3.4720811    0.6699868   -5.8735629 
H     3.4190162   -2.3797390   -4.5255578 
H     2.1903356   -2.8121473   -6.5850093 
H     1.7841266   -1.0060109   -8.1867440 
H     2.6245760    1.2633761   -7.7207125 
N     4.0440323    1.8939914   -5.4400376 
C     4.6312863    1.4965995   -4.1937062 
H     4.0500000    2.8268589   -5.9130280 
H     5.2041779    2.1634641   -3.5517638 
