48
Energy =
C     2.1121748   -3.0085651   -1.7828901 
C     1.4115670   -1.8523833   -1.8965910 
C     1.8814701   -3.8464546   -0.7371570 
C     0.9508072   -3.5199131    0.1886310 
C     0.2477973   -2.3639851    0.0798415 
C     0.4735650   -1.5230940   -0.9660251 
H     1.6123487   -1.1860110   -2.7319478 
H     0.7791576   -4.1948691    1.0202708 
H    -0.4912126   -2.1154581    0.8370920 
H     2.8595375   -3.2590577   -2.5280611 
C    -0.2880863   -0.2197730   -1.0752781 
C     0.2342225    0.8463145   -0.0854171 
H    -1.3652874   -0.4112326   -0.8749184 
H    -0.2322511    0.1775939   -2.1138999 
C     1.7201191    1.1203741   -0.2501285 
O     2.5848212   -5.0461958   -0.5903759 
H     3.2715357   -5.2152007   -1.3174094 
O     2.5707066    0.8958850    0.8318290 
N    -0.5539123    2.0827533   -0.2293107 
H     0.1228586    0.4653871    0.9584754 
H    -0.6018637    2.3752892   -1.2345186 
H    -1.5381715    1.9078914    0.0845643 
N     2.2416381    1.5708863   -1.5177639 
C     3.7251883    1.6296916   -1.5583214 
H     1.8553768    2.5377193   -1.6250500 
C     4.2094332    2.5291956   -2.6958708 
O     3.5447299    2.5115616   -3.9165307 
O     5.3387371    3.3383235   -2.5637712 
H     5.8061253    3.2102680   -1.6780247 
C     4.2808663    0.1966750   -1.7292648 
H     4.1196603    2.0806088   -0.6159975 
C     5.7809201    0.1493647   -1.5462663 
H     3.9908076   -0.2086549   -2.7225645 
H     3.8234169   -0.4774432   -0.9722686 
C     6.7210514    0.2428496   -2.5009545 
C     6.5901666    0.3772229   -3.8460986 
C     7.7221366    0.4630658   -4.6018928 
C     8.9538921    0.4141707   -4.0099609 
C     9.0611850    0.2820759   -2.6573615 
C     7.9267757    0.1989746   -1.9310038 
H     5.6145384    0.4306181   -4.3201761 
H     7.6431437    0.5796867   -5.6801947 
H     9.8509203    0.4881165   -4.6196567 
H    10.0302997    0.2488387   -2.1713116 
N     7.8183963    0.0758591   -0.5197473 
C     6.3950935    0.0567059   -0.3541001 
H     8.5718452    0.0173503    0.2031221 
H     5.8871151   -0.0108154    0.6061746 
