48
Energy =
C    -1.5665474    1.7461015    0.0884778 
C    -0.6216496    2.6141883   -0.3515152 
C    -1.5061882    1.2543207    1.3542184 
C    -0.5036119    1.6414724    2.1745335 
C     0.4427030    2.5121388    1.7406105 
C     0.3921277    3.0022593    0.4710702 
H    -0.6783212    2.9855104   -1.3722976 
H    -0.4677719    1.2421173    3.1822279 
H     1.2420345    2.8098339    2.4134641 
H    -2.3644257    1.4394090   -0.5794469 
C     1.4713713    3.9433950   -0.0268062 
C     2.7982144    3.1958086   -0.3108267 
H     1.6350491    4.7316895    0.7401037 
H     1.1374256    4.4696828   -0.9509782 
C     2.6736886    2.1710477   -1.4320744 
O    -2.4547074    0.3455139    1.8334578 
H    -3.1897729    0.1294375    1.1684101 
O     1.6523990    2.2711905   -2.3721137 
N     3.8679281    4.1590522   -0.6090032 
H     3.0858554    2.6274478    0.6016367 
H     3.6693333    4.6429957   -1.5200006 
H     3.9210099    4.8919573    0.1360563 
N     3.5499468    1.0335657   -1.4697882 
C     4.2103958    0.6918060   -2.7470400 
H     3.8243706    0.5655770   -0.5776692 
C     4.6236577    1.9206343   -3.5693864 
O     4.2047267    2.0634581   -4.8882126 
O     5.4729987    2.8907341   -3.0340997 
H     5.7091654    2.6826316   -2.0743687 
C     3.3086411   -0.2872814   -3.5299907 
H     5.1663599    0.1684560   -2.5222675 
C     3.1147646   -1.5846291   -2.7742928 
H     3.7671471   -0.5137336   -4.5184407 
H     2.3275728    0.1898913   -3.7463156 
C     2.1397503   -1.8787405   -1.8969310 
C     1.0707452   -1.1422039   -1.4964124 
C     0.2280272   -1.6740789   -0.5649841 
C     0.4618097   -2.9198239   -0.0533138 
C     1.5395967   -3.6424759   -0.4707365 
C     2.3582312   -3.0954324   -1.3939868 
H     0.8819146   -0.1531490   -1.9004400 
H    -0.6343354   -1.1054913   -0.2269417 
H    -0.2145940   -3.3350534    0.6896813 
H     1.7407278   -4.6313785   -0.0734688 
N     3.5348551   -3.6704275   -1.9443168 
C     3.9667716   -2.6235914   -2.8227509 
H     3.9691530   -4.6022603   -1.7540712 
H     4.8706771   -2.6615341   -3.4262982 
