48
Energy =
C     6.4249855   -3.8924978   -0.2552491 
C     5.3864547   -3.0592801   -0.5175827 
C     6.3139314   -4.8384784    0.7153133 
C     5.1625956   -4.9439156    1.4171190 
C     4.1206984   -4.1133916    1.1589679 
C     4.2262721   -3.1666204    0.1867797 
H     5.4898104   -2.3071584   -1.2952205 
H     5.0869668   -5.7019671    2.1890463 
H     3.2055593   -4.2120034    1.7370566 
H     7.3444846   -3.8001889   -0.8228368 
C     3.0763504   -2.2261643   -0.0964312 
C     3.2978795   -0.8271766    0.5255069 
H     2.1142190   -2.6513237    0.2705488 
H     2.9599517   -2.1337169   -1.1996331 
C     2.2815850    0.1670081   -0.0148043 
O     7.3656873   -5.7115051    1.0119565 
H     8.1909698   -5.5730597    0.4392472 
O     0.9399451   -0.0068993    0.3039180 
N     3.2309087   -0.8906785    1.9938321 
H     4.3027795   -0.4512680    0.2382290 
H     2.3028301   -1.2790328    2.2903285 
H     3.9749107   -1.5291020    2.3594528 
N     2.5978680    0.9650833   -1.1619404 
C     3.4663542    2.1397533   -0.9675193 
H     2.3005321    0.6320898   -2.1068326 
C     2.8901518    3.3569079   -1.6983057 
O     2.3441346    3.2014314   -2.9677368 
O     2.9958072    4.6446598   -1.1674451 
H     3.3472533    4.6431521   -0.2224776 
C     4.9234194    1.7741453   -1.3841886 
H     3.4760699    2.4099241    0.1138449 
C     5.5276569    2.6738626   -2.4456874 
H     4.9773392    0.7234234   -1.7409603 
H     5.5732936    1.8050903   -0.4818271 
C     5.4761983    2.4980528   -3.7760836 
C     4.9084181    1.5006709   -4.5021961 
C     4.9846431    1.5651480   -5.8625090 
C     5.6161570    2.6149879   -6.4700953 
C     6.1726106    3.6087037   -5.7207766 
C     6.0867668    3.5209039   -4.3768482 
H     4.3880654    0.6773958   -4.0240726 
H     4.5299980    0.7841990   -6.4672047 
H     5.6645508    2.6638017   -7.5550630 
H     6.6653403    4.4550491   -6.1869782 
N     6.5766201    4.4528987   -3.4229235 
C     6.1594989    3.8346203   -2.1968876 
H     7.1117079    5.3378567   -3.5804211 
H     6.2843922    4.2730899   -1.2085447 
