48
Energy =
C     3.7215126   -3.2237868   -1.6555242 
C     2.5327658   -2.8457949   -2.2052667 
C     3.7288273   -4.1971180   -0.6880782 
C     2.5607155   -4.6638558   -0.1933938 
C     1.3758303   -4.2142675   -0.6908086 
C     1.3578100   -3.3116529   -1.7112469 
H     2.5388725   -2.1534597   -3.0449554 
H     2.5880837   -5.3924418    0.6085232 
H     0.4459815   -4.5961596   -0.2782944 
H     4.7830084   -2.8688896   -2.2690922 
C     0.0534740   -2.8270344   -2.3134551 
C    -0.4075137   -1.4613280   -1.7440970 
H    -0.7439603   -3.5835480   -2.1444087 
H     0.1653094   -2.7403586   -3.4181995 
C     0.6652155   -0.3775740   -1.8574508 
O     4.9633761   -4.6063024   -0.1244756 
H     6.2155810   -4.3318653   -0.7723071 
O     1.2099571   -0.0859920   -3.1090912 
N    -1.6471314   -1.0411574   -2.4147709 
H    -0.6295975   -1.5846144   -0.6598105 
H    -1.4537201   -0.8451867   -3.4269948 
H    -2.3674271   -1.7982149   -2.3614625 
N     1.4117031   -0.0101585   -0.6860651 
C     1.9907010    1.3453093   -0.5977309 
H     1.4748385   -0.6824146    0.1105552 
C     0.9796980    2.4537081   -0.9292703 
O    -0.3820281    2.1762959   -0.9467354 
O     1.3776216    3.7830886   -1.1001827 
H     2.3484397    3.9355011   -0.8817138 
C     3.3047184    1.4416081   -1.4336597 
H     2.2395806    1.5397574    0.4639011 
C     4.1659939    0.1831391   -1.5079224 
H     3.9380836    2.2671941   -1.0470067 
H     3.0118574    1.6939432   -2.4805309 
C     4.2993043   -0.8082739   -0.6156799 
C     4.3043115   -0.6026929    0.7244500 
C     5.0574818   -1.3653826    1.5481311 
C     5.8406633   -2.3744316    1.1076635 
C     5.9050735   -2.7082710   -0.2006690 
C     5.0957725   -1.9541465   -1.2693933 
H     3.8275963    0.2614155    1.1620554 
H     5.0309933   -1.1591703    2.6156788 
H     6.3024058   -3.0419794    1.8289438 
H     5.9960212   -5.7591558   -1.0138621 
N     5.9396269   -1.1349956   -2.1314471 
C     5.1416508    0.0260399   -2.4083785 
H     6.9068919   -1.3340636   -2.4823591 
H     5.3506993    0.7241185   -3.2168094 
