48
Energy =
C     2.3505742    0.0008837    4.9512782 
C     1.4029552    0.3499921    4.0445123 
C     3.6600073   -0.0440836    4.5887090 
C     4.0121177    0.2637802    3.3206200 
C     3.0684899    0.6123487    2.4105156 
C     1.7539436    0.6500648    2.7615808 
H     0.3626574    0.3875223    4.3560304 
H     5.0602438    0.2315551    3.0442353 
H     3.3755658    0.8694051    1.4047106 
H     2.0585043   -0.2394925    5.9678296 
C     0.6955668    1.0455730    1.7454485 
C     0.2790952   -0.0952834    0.7778767 
H     1.0687475    1.9140195    1.1558479 
H    -0.2137897    1.4134834    2.2697273 
C     1.4022947   -0.4895620   -0.1751210 
O     4.6613713   -0.3971856    5.4992275 
H     4.3150492   -0.6207233    6.4256188 
O     2.0215492   -1.7331525   -0.0874573 
N    -0.2650079   -1.2666969    1.4959959 
H    -0.5223458    0.3175608    0.1217706 
H    -0.2392345   -1.1637863    2.5343296 
H    -1.2641411   -1.4234895    1.2277802 
N     1.7108388    0.3483514   -1.2983761 
C     3.1355921    0.5411562   -1.6233185 
H     0.9485950    0.8785998   -1.7773828 
C     3.5207890    2.0069354   -1.6034402 
O     4.0714898    2.5509566   -0.4509614 
O     3.3221414    2.8276197   -2.7084524 
H     2.7309144    2.2838417   -3.5203131 
C     3.4529542   -0.1388435   -2.9710702 
H     3.7894231    0.0674720   -0.8518297 
C     2.5040782    0.2551772   -4.0957679 
H     3.4252231   -1.2335387   -2.7904148 
H     4.4920599    0.1102953   -3.2832936 
C     1.9534860   -0.5852960   -4.9874998 
C     2.0559780   -1.9414298   -5.0756267 
C     1.4068115   -2.5838265   -6.0868157 
C     0.6751739   -1.8752197   -6.9936933 
C     0.5910232   -0.5207431   -6.8936773 
C     1.2399983    0.0968367   -5.8813469 
H     2.6338250   -2.5232880   -4.3670004 
H     1.4732240   -3.6661704   -6.1714601 
H     0.1606658   -2.3929041   -7.7996640 
H     0.0176760    0.0559676   -7.6117887 
N     1.2656905    1.4979195   -5.6513361 
C     2.0710414    1.6810453   -4.4315080 
H     0.7970136    2.2213540   -6.2479619 
H     2.0067680    2.7919321   -4.4225917 
