48
Energy =
C     4.1289619   -3.2234482    0.6123641 
C     3.1044826   -2.3333194    0.6401002 
C     5.1823652   -3.0777723    1.4583979 
C     5.2050366   -2.0412410    2.3264515 
C     4.1851174   -1.1471435    2.3565829 
C     3.1245696   -1.2905303    1.5155750 
H     2.2700413   -2.4570630   -0.0481109 
H     6.0517649   -1.9362743    2.9960893 
H     4.2222847   -0.3197292    3.0606214 
H     4.1060367   -4.0484353   -0.0918770 
C     1.9924912   -0.2857132    1.5477209 
C     2.3408228    1.0015318    0.7611285 
H     1.7742703   -0.0343950    2.6089980 
H     1.0542592   -0.7305120    1.1440700 
C     2.3449054    0.7965669   -0.7570548 
O     6.2598082   -3.9686057    1.4467660 
H     6.1510412   -4.7376830    0.7936484 
O     1.8401668   -0.3731477   -1.3153575 
N     1.4061882    2.0752500    1.1340845 
H     3.3691376    1.3204060    1.0412696 
H     0.4217647    1.7731637    0.9315456 
H     1.4703575    2.2691588    2.1614934 
N     2.7176894    1.8632212   -1.6442304 
C     4.1873795    1.9868578   -1.7797992 
H     2.2765147    2.7381964   -1.2747148 
C     4.5868822    3.4209343   -2.1396726 
O     4.8152141    3.7831273   -3.4623127 
O     4.6954987    4.4028053   -1.1562886 
H     4.4040308    4.0669883   -0.2513232 
C     4.6588110    0.9672504   -2.8407296 
H     4.7075141    1.7642126   -0.8205659 
C     6.1676754    0.8969943   -2.9376378 
H     4.2194506    1.2385450   -3.8282003 
H     4.2570356   -0.0425496   -2.6048483 
C     6.9909867    0.1826466   -2.1542712 
C     6.7052012   -0.6556221   -1.1243512 
C     7.7426471   -1.2680018   -0.4826804 
C     9.0320984   -1.0331503   -0.8715305 
C     9.2942273   -0.1849451   -1.9053540 
C     8.2528408    0.4059514   -2.5269068 
H     5.6809030   -0.8439350   -0.8140070 
H     7.5482103   -1.9505049    0.3410037 
H     9.8517287   -1.5262301   -0.3542828 
H    10.3116521    0.0136365   -2.2251358 
N     8.3090299    1.3192266   -3.6126295 
C     6.9149087    1.5926717   -3.8138743 
H     9.1408507    1.6873265   -4.1290326 
H     6.5199370    2.2907840   -4.5529953 
