48
Energy =
C     3.6625696    1.7123326    3.6074596 
C     3.9622075    1.0114450    2.4852592 
C     3.2103464    1.0671014    4.7155562 
C     3.0556400   -0.2764799    4.6904271 
C     3.3517399   -0.9828794    3.5699638 
C     3.8154861   -0.3430053    2.4619324 
H     4.3103768    1.5420716    1.6014115 
H     2.6863891   -0.7780768    5.5783033 
H     3.2109180   -2.0603923    3.5664852 
H     3.7810937    2.7902489    3.6144046 
C     4.1213300   -1.1219203    1.2005367 
C     2.8687107   -1.2796425    0.2984773 
H     4.4934329   -2.1348083    1.4715233 
H     4.9633405   -0.6387035    0.6657600 
C     2.1410635    0.0381471   -0.0062923 
O     2.8983943    1.7583301    5.8910495 
H     3.0160147    2.7634875    5.8231427 
O     0.9585551    0.2696968    0.6869803 
N     3.1694122   -2.0662044   -0.9163596 
H     2.1196374   -1.8449914    0.9072140 
H     4.1965744   -2.0918516   -1.1176801 
H     2.8875380   -3.0630313   -0.7607094 
N     2.4736821    1.0061847   -1.0283831 
C     3.7662259    0.8826364   -1.7482394 
H     1.6513338    1.0208157   -1.6680885 
C     4.5609198    2.1813843   -1.6931985 
O     5.9486483    2.1149436   -1.7058496 
O     3.9587553    3.4386678   -1.7186267 
H     2.9522351    3.3686555   -1.6997046 
C     3.5764010    0.3717312   -3.2017358 
H     4.4334472    0.1640073   -1.2544877 
C     2.8711181    1.3530563   -4.1190697 
H     3.0045080   -0.5819437   -3.1736362 
H     4.5688358    0.1138300   -3.6330494 
C     3.4287104    2.3561761   -4.8202899 
C     4.7263038    2.7503758   -4.9038724 
C     5.0317594    3.8142103   -5.7010206 
C     4.0494796    4.4573186   -6.4013969 
C     2.7551732    4.0406719   -6.3085941 
C     2.4772824    2.9887370   -5.5103262 
H     5.5115075    2.2470717   -4.3471721 
H     6.0617889    4.1559547   -5.7742002 
H     4.3010673    5.3062101   -7.0324500 
H     1.9639389    4.5392724   -6.8582716 
N     1.2056890    2.3982495   -5.2841780 
C     1.5502316    1.3435631   -4.3767998 
H     0.2737900    2.6629700   -5.6798946 
H     0.8386124    0.6275432   -3.9688554 
