48
Energy =
C     4.5342084    2.9100305    3.2012224 
C     4.3155721    2.0258656    2.1980388 
C     3.8548246    2.7905876    4.3776411 
C     2.9621257    1.7883331    4.5340424 
C     2.7407787    0.9014923    3.5328231 
C     3.4203179    1.0106207    2.3570180 
H     4.8685215    2.1357964    1.2706062 
H     2.4240205    1.7063236    5.4721381 
H     2.0152467    0.1052352    3.6791678 
H     5.2590148    3.7098873    3.0585881 
C     3.1599199    0.0244346    1.2344823 
C     1.8647715    0.3639177    0.4615668 
H     3.0717613   -0.9958874    1.6706133 
H     4.0264942   -0.0182501    0.5390550 
C     2.0178106    1.6556379   -0.3281700 
O     4.0537018    3.6782966    5.4428702 
H     4.7188863    4.4156445    5.2293748 
O     1.3567923    2.8011824    0.1024727 
N     1.4775866   -0.7378334   -0.4340615 
H     1.0399156    0.4928459    1.1997908 
H     2.3043854   -1.0480181   -0.9911483 
H     1.1797472   -1.5514800    0.1531344 
N     2.4201583    1.6161322   -1.7025159 
C     3.8593350    1.7075342   -1.9902773 
H     1.6638657    1.4831406   -2.4052711 
C     4.1775279    2.9381170   -2.8350902 
O     4.5697594    4.1227596   -2.2337708 
O     4.0756145    2.9113759   -4.2268142 
H     3.6324759    1.9378623   -4.6047159 
C     4.3750369    0.4179817   -2.6597233 
H     4.4212099    1.7894538   -1.0376013 
C     3.5546030   -0.0366507   -3.8593964 
H     4.4202881   -0.3655320   -1.8791011 
H     5.4259555    0.5718074   -2.9903826 
C     3.1751057   -1.3006434   -4.1116818 
C     3.3355320   -2.4225069   -3.3515075 
C     2.8767830   -3.6112990   -3.8335380 
C     2.2758423   -3.6718301   -5.0559228 
C     2.1296188   -2.5485715   -5.8020748 
C     2.5877136   -1.3747866   -5.3055409 
H     3.8006538   -2.4069167   -2.3659618 
H     2.9856040   -4.5188910   -3.2423771 
H     1.9096522   -4.6169920   -5.4438607 
H     1.6581429   -2.5920745   -6.7811528 
N     2.5338421   -0.1176270   -5.9681816 
C     3.1359387    0.8463298   -5.0342112 
H     2.1361797    0.0133605   -6.9314315 
H     3.0406513    1.7310367   -5.7045108 
