48
Energy =
C     0.1022141   -2.7469975   -3.8146210 
C     0.2168520   -2.3377775   -2.5256833 
C    -0.7971694   -2.1518100   -4.6428337 
C    -1.5761073   -1.1502836   -4.1745873 
C    -1.4650919   -0.7364791   -2.8867511 
C    -0.5665969   -1.3283286   -2.0533531 
H     0.9498087   -2.8145675   -1.8760879 
H    -2.2886298   -0.6833926   -4.8459369 
H    -2.0974722    0.0725153   -2.5305979 
H     0.7341356   -3.5491504   -4.1815159 
C    -0.4220059   -0.8577755   -0.6207234 
C     0.6707191    0.2232948   -0.4324563 
H    -0.1786829   -1.7301024    0.0282901 
H    -1.3951769   -0.4726744   -0.2446319 
C     2.0348516   -0.2372626   -0.9195795 
O    -0.9381142   -2.5471079   -5.9765774 
H    -0.3248005   -3.3082607   -6.2469264 
O     2.6976351   -1.2348737   -0.2145454 
N     0.2587353    1.5059942   -1.0297163 
H     0.8121548    0.3802791    0.6627754 
H     0.1377414    1.4106766   -2.0650795 
H    -0.6610521    1.8094055   -0.6322683 
N     2.5192159    0.1187927   -2.2199366 
C     3.8282628    0.7942835   -2.2749415 
H     1.9159727   -0.0598914   -3.0523778 
C     3.8039112    1.9888960   -3.2220464 
O     4.1874213    3.2372967   -2.7484281 
O     3.4333008    1.8672089   -4.5634060 
H     3.2095121    0.9142471   -4.8033667 
C     4.8978322   -0.2488665   -2.6608007 
H     4.0814733    1.2267946   -1.2754923 
C     6.2972879    0.2673850   -2.4083631 
H     4.7811921   -0.5671395   -3.7185222 
H     4.7430115   -1.1661176   -2.0465117 
C     7.0930938    0.9191562   -3.2719134 
C     6.8840540    1.2530997   -4.5713854 
C     7.8638872    1.9338748   -5.2319302 
C     9.0260146    2.2661498   -4.5923832 
C     9.2146053    1.9203376   -3.2872364 
C     8.2302423    1.2471119   -2.6552108 
H     5.9611794    0.9971449   -5.0817121 
H     7.7156745    2.2189460   -6.2707927 
H     9.8000184    2.8128048   -5.1251030 
H    10.1278873    2.1806010   -2.7633559 
N     8.2224763    0.8070695   -1.3042704 
C     6.9317965    0.1881031   -1.2254794 
H     8.9600890    0.9060626   -0.5697714 
H     6.5195960   -0.2674313   -0.3270666 
