48
Energy =
C     0.8357006    3.6071139    4.9780613 
C     0.8712310    2.8946833    3.8234823 
C     1.5200296    4.7778317    5.0803511 
C     2.2360655    5.2276476    4.0249377 
C     2.2754917    4.5194494    2.8679940 
C     1.5892732    3.3484818    2.7593772 
H     0.3222059    1.9584915    3.7577386 
H     2.7782557    6.1621578    4.1193149 
H     2.8597193    4.8978937    2.0324880 
H     0.2600570    3.2373305    5.8196999 
C     1.6446548    2.5429124    1.4802017 
C     2.6280444    1.3534707    1.5959675 
H     1.9296034    3.1976483    0.6257663 
H     0.6226912    2.1648969    1.2506255 
C     2.5101534    0.3833003    0.4241084 
O     1.5055486    5.5352416    6.2561952 
H     0.9446709    5.1321916    6.9986900 
O     2.1167806   -0.9233459    0.6814079 
N     4.0158467    1.8226033    1.7789603 
H     2.3333900    0.7390472    2.4831069 
H     4.1689200    2.7539791    1.3241153 
H     4.1840680    1.9885707    2.8001115 
N     2.6119573    0.7942813   -0.9505573 
C     3.9943417    1.1464387   -1.3491593 
H     1.9202306    1.5554394   -1.1338384 
C     4.2436480    2.6553261   -1.3366851 
O     3.2486922    3.5246838   -1.7661891 
O     5.4708803    3.1951696   -0.9533332 
H     6.1491339    2.4850173   -0.7166401 
C     4.2263336    0.5679745   -2.7563267 
H     4.7336493    0.6811291   -0.6518081 
C     5.6800421    0.6549484   -3.1638723 
H     3.5848743    1.1034093   -3.4937488 
H     3.8960537   -0.4949123   -2.7791669 
C     6.6555932   -0.2069992   -2.8384132 
C     6.5958146   -1.3575701   -2.1197989 
C     7.7513255   -2.0520103   -1.9127310 
C     8.9355274   -1.5891923   -2.4169003 
C     8.9715665   -0.4277127   -3.1302413 
C     7.8145235    0.2390211   -3.3248329 
H     5.6576141   -1.7239779   -1.7118907 
H     7.7307698   -2.9770662   -1.3410801 
H     9.8525461   -2.1473370   -2.2449303 
H     9.9033932   -0.0426963   -3.5304283 
N     7.6365805    1.4701066   -4.0107761 
C     6.2256758    1.6736935   -3.8515086 
H     8.3442227    2.0650086   -4.5000137 
H     5.6850978    2.5555876   -4.1947745 
