48
 energy: -9.055224668495 gnorm: 0.000708916103 xtb: 6.6.0 (2ccbbd7)
C            0.81962705470230       -1.17444406552826        2.60535228479049
C            0.03556563820616       -0.93874607662979        1.50084568192049
C            1.74428965242164       -0.22354141132443        3.03644291621704
C            1.83639500417011        0.97353295301938        2.32816068084095
C            1.04797087664774        1.20270243664558        1.22630539514295
C            0.14433896145870        0.24465180417435        0.78539790333118
H           -0.67456869429448       -1.68144241763722        1.18170800854788
H            2.55241746751897        1.70716944827193        2.65443423227208
H            1.14778780438883        2.12568212339118        0.68032059750920
H            0.73066677217336       -2.09949445063023        3.14624379046439
C           -0.65877414387323        0.46896984080579       -0.45974731545512
C           -0.18402866737245       -0.30569146275742       -1.70745913177003
H           -0.67809032354525        1.54071399630419       -0.67183716131857
H           -1.69887988125558        0.19919813616481       -0.24896536466827
C            1.23639511770999        0.07553301292507       -2.21312388669591
O            2.56346226667991       -0.44010582433452        4.12824566927550
H            2.37448769872583       -1.32009601041150        4.52063916819647
O            1.43626821043465       -0.41086375582538       -3.57039273486953
N           -0.22772113124413       -1.74325885759435       -1.51415336700312
H           -0.86812353486853       -0.08420477300697       -2.54192871087661
H            0.56737815672221       -2.02943311050401       -0.94956550005202
H           -1.08117677093114       -2.03226840367256       -1.05070555499373
N            2.30248037656696       -0.41318144460030       -1.29473980412351
C            3.73896731899076       -0.09278628381357       -1.43895504226010
H            2.01815040699545       -0.13881787240382       -0.35514838449267
C            4.03048186222695        1.28262048464142       -0.86820475379116
O            4.07161829402111        2.23745385617276       -1.61297190664106
O            4.19678979539725        1.35110074662553        0.47826979285252
H            4.13940840872120        0.46328723790278        0.89529522795980
C            4.30471056019418       -0.27605995403221       -2.85376176629752
H            4.26412114372081       -0.81386849251025       -0.79179678847696
C            3.64554280263730        0.53991022999229       -3.90125820095745
H            4.21119861170402       -1.32925409709810       -3.14011277190701
H            5.37524893006663       -0.04510513890951       -2.84852016956566
C            2.15714825086523        0.80355197254873       -3.91721311051083
C            1.44885680079180        1.54484421212474       -2.72739907852530
C            0.21979705412841        2.29184122708903       -3.16403186696015
C           -0.07353774651145        2.54731032566057       -4.44520515488019
C            0.79669872834845        2.17401523780054       -5.52414675920535
C            1.87489529226869        1.40034914840124       -5.27725359862106
H            2.14311095359414        2.14137540676733       -2.12592757002021
H           -0.45196497844173        2.64029576529853       -2.39948656212043
H           -0.96920384116803        3.09704928969470       -4.68340224404023
H            0.66523520649140        2.60723297235849       -6.49999444550551
N            3.06805830302475        1.26237233940622       -5.97921869479288
C            4.10049360554359        0.78483741005360       -5.14659122619523
H            3.24974252043899        1.75471270246939       -6.85380710663640
H            5.10099994717025        0.57770009644879       -5.48728996734241
