48
Energy =
C     3.8165314    4.4589928   -6.7751803 
C     3.7800748    3.7903196   -5.5952433 
C     2.6701231    4.9448628   -7.3212530 
C     1.4935355    4.7569665   -6.6818548 
C     1.4506845    4.0889851   -5.5012801 
C     2.5966608    3.6041556   -4.9476823 
H     4.7068760    3.4055747   -5.1762861 
H     0.5862705    5.1471808   -7.1302486 
H     0.4930838    3.9426222   -5.0086563 
H     4.7658483    4.6017140   -7.2806086 
C     2.5531262    2.8420392   -3.6409544 
C     2.6608740    1.3097951   -3.8406840 
H     1.6252221    3.0791271   -3.0744075 
H     3.4015749    3.1887719   -3.0032339 
C     2.6640940    0.5946880   -2.4971860 
O     2.6716071    5.6374534   -8.5360826 
H     3.5917712    5.7369105   -8.9517597 
O     1.4441190    0.3345887   -1.8805109 
N     1.5667776    0.8154037   -4.6964254 
H     3.6368954    1.0584772   -4.3194017 
H     0.6381161    1.1049312   -4.3065028 
H     1.6556590    1.1977974   -5.6667662 
N     3.8222731    0.6562420   -1.6516162 
C     5.0624069   -0.0772294   -1.9953843 
H     3.7477744    1.2184924   -0.7753694 
C     6.0538229    0.8123805   -2.7374597 
O     5.6587800    2.0548207   -3.2193786 
O     7.3779635    0.4229037   -2.9287312 
H     7.5788022   -0.4698931   -2.5056607 
C     4.7840059   -1.4009967   -2.7551002 
H     5.5758316   -0.3331330   -1.0430583 
C     3.8599029   -2.3237112   -1.9844945 
H     5.7370835   -1.9469655   -2.9256075 
H     4.3841224   -1.1791711   -3.7649599 
C     2.6609569   -2.7901590   -2.3754658 
C     1.9730341   -2.5836288   -3.5281403 
C     0.7547956   -3.1758819   -3.6733701 
C     0.2461645   -3.9666201   -2.6801689 
C     0.9576264   -4.1695904   -1.5354231 
C     2.1601974   -3.5684185   -1.4138865 
H     2.3645165   -1.9705026   -4.3319256 
H     0.1902272   -3.0123619   -4.5863573 
H    -0.7275905   -4.4339705   -2.8036290 
H     0.5723342   -4.7948326   -0.7369645 
N     3.0534228   -3.6591480   -0.3138561 
C     4.1290395   -2.8271922   -0.7659548 
H     2.9545355   -4.1942561    0.5790980 
H     5.0325618   -2.6315352   -0.1945572 
