48
Energy =
C    -2.9531439    3.8615119    0.3068098 
C    -1.6301724    3.5649394    0.3573924 
C    -3.8053697    3.3422337    1.2302130 
C    -3.3270711    2.5263710    2.1969689 
C    -2.0050917    2.2243198    2.2506519 
C    -1.1464732    2.7439376    1.3305200 
H    -0.9626356    3.9742499   -0.3963184 
H    -4.0177270    2.1169164    2.9260598 
H    -1.6398351    1.5648674    3.0334629 
H    -3.3273294    4.5105755   -0.4771255 
C     0.3282134    2.4018152    1.3919426 
C     0.6483443    0.9936390    0.8191019 
H     0.6462471    2.4622885    2.4569739 
H     0.9357155    3.1677288    0.8576749 
C     0.5981773    0.9821194   -0.7278813 
O    -5.1740971    3.6303039    1.2097358 
H    -5.4567826    4.2344713    0.4456776 
O    -0.6226070    1.3422182   -1.2855263 
N     1.8940825    0.5139403    1.4345884 
H    -0.1731365    0.2919572    1.1043651 
H     2.6074001    1.2849816    1.4679618 
H     1.7136187    0.2512518    2.4324993 
N     1.5770700    0.5149604   -1.6914714 
C     2.9219562    0.0339243   -1.2890821 
H     1.6748521    1.3246496   -2.3412902 
C     3.9411803    1.1774925   -1.1172854 
O     4.5585375    1.3825381    0.1114046 
O     4.2663049    2.0190699   -2.1906903 
H     4.0005979    1.4768596   -3.1113551 
C     3.3815440   -1.0476998   -2.3165747 
H     2.8838067   -0.5184026   -0.3363122 
C     3.8096606   -0.5338884   -3.6852654 
H     2.5653581   -1.7896901   -2.4556606 
H     4.2456948   -1.5875088   -1.8673603 
C     4.6320347   -1.1786532   -4.5228190 
C     5.0147622   -2.4829711   -4.5022887 
C     5.8992627   -2.9174557   -5.4436535 
C     6.3973422   -2.0491326   -6.3724795 
C     6.0150810   -0.7415466   -6.3622328 
C     5.1279073   -0.3340132   -5.4285139 
H     4.6251830   -3.1747475   -3.7607823 
H     6.2162152   -3.9577853   -5.4507178 
H     7.1111398   -2.3985065   -7.1145055 
H     6.4210519   -0.0346088   -7.0780800 
N     4.6767608    1.0017295   -5.2325384 
C     3.7185097    0.9037026   -4.1226578 
H     4.9262830    1.8434886   -5.8040624 
H     2.6856540    1.1786838   -4.4226618 
