48
 energy: -8.854398956878 gnorm: 0.000500443015 xtb: 6.6.0 (2ccbbd7)
C           -2.50543639253175        0.85054395779959       -5.85163025887529
C           -2.22251062409630        1.10496090416276       -4.52870024460675
C           -1.48416545491145        0.55758545219641       -6.75868833777590
C           -0.17126034072837        0.53200214517965       -6.28581386903825
C            0.08877039574066        0.78812042067416       -4.96639263426693
C           -0.91422396335254        1.07104473523740       -4.06384810756698
H           -3.01811415558979        1.33771507866905       -3.84187159026173
H            0.62621844520961        0.31348241997334       -6.97265259740192
H            1.20344420139415        0.79814528721819       -4.45383162786060
H           -3.52151589104860        0.87834748277955       -6.20235497064931
C           -0.57799763770176        1.38323753906137       -2.63633453960246
C            0.51551259689391        0.48898587565277       -2.02058318848138
H           -1.48678455826911        1.30158821947335       -2.03175742572422
H           -0.26358003421481        2.42842704320997       -2.55967394184822
C            1.89323116995754        0.84030353079759       -2.51324788452659
O           -1.73816459789334        0.29885469972414       -8.09227593651567
H           -2.70149345634213        0.36751433809154       -8.26925961947958
O            2.15967966027012        0.86348971364321       -3.85635985793582
N            0.45122724712224        0.52958199496514       -0.55947067163642
H            0.32776135459177       -0.55266368489409       -2.32523231307813
H            0.52026608246288        1.49041057892248       -0.24938295233989
H           -0.44151776617050        0.18259152340332       -0.23187013532269
N            2.89021223205046        1.15285291779464       -1.59051129347581
C            4.20161842193865        1.71879976700035       -1.93397913362355
H            2.61982236275327        1.32848265591524       -0.62052366463164
C            4.06378340147870        3.17467926640930       -2.27522329080341
O            4.98482750624240        4.05839995691482       -1.79163184889778
O            3.01768389860761        3.52522275838259       -3.09216020746520
H            2.61529378807478        2.68365432919193       -3.42262650650753
C            4.88622734513240        0.92556076302031       -3.05901949829177
H            4.83279156260238        1.64155415325674       -1.03567690254599
C            6.38095732584277        0.86689657348981       -2.98473264659020
H            4.57798812384644        1.33139810006727       -4.02765374903984
H            4.49588161391689       -0.09799687433448       -3.03772596483710
C            7.30063899065508        1.85759448446154       -2.51554008241684
C            7.15233554455674        3.14502332269008       -1.97982524709595
C            8.25862613416101        3.85696035759306       -1.62450204739638
C            9.54653286669545        3.32094521313407       -1.78341775176363
C            9.72716580153193        2.06861114985032       -2.30277146728858
C            8.59815117959480        1.32698491456997       -2.67505730635295
H            6.03048712056838        3.62873293758908       -1.85809265808722
H            8.14037802315099        4.84833436324530       -1.21984789019698
H           10.40257265632509        3.90776449840305       -1.49414341686141
H           10.70811104345539        1.64772090830310       -2.43225793303379
N            8.46903609116283        0.06603381786053       -3.22608808254773
C            7.13564407241059       -0.19782506339321       -3.41371799682553
H            9.24909985940559       -0.55211315293973       -3.45685434943566
H            6.74446953748247       -1.11058806154292       -3.83313461960175
