48
Energy =
C    -1.4187425    1.6923870   -0.7858636 
C    -0.2093450    2.1522010   -0.3788252 
C    -2.1887392    0.9553071    0.0580880 
C    -1.7421160    0.6842018    1.3057492 
C    -0.5329177    1.1416491    1.7186966 
C     0.2449190    1.8748892    0.8760892 
H     0.3947985    2.7414199   -1.0668675 
H    -2.3650570    0.0942886    1.9693511 
H    -0.1922156    0.9122792    2.7246639 
H    -1.7678215    1.9161287   -1.7880535 
C     1.6018946    2.3748151    1.3280466 
C     2.6214729    1.2309591    1.5555969 
H     1.4754749    2.9459380    2.2734991 
H     2.0149444    3.0947183    0.5840727 
C     2.7524892    0.2997443    0.3591089 
O    -3.4411946    0.4677334   -0.3296930 
H    -3.7030423    0.7094462   -1.2791512 
O     2.4371903   -1.0461552    0.5023373 
N     3.9263949    1.8034904    1.9331002 
H     2.2606078    0.5791461    2.3871478 
H     4.1825851    2.5928096    1.2920600 
H     3.8547615    2.2154882    2.8936771 
N     2.8817254    0.8231616   -0.9632357 
C     4.2160323    1.2511267   -1.4098498 
H     2.0323836    0.8745767   -1.5668707 
C     4.2165879    2.7218829   -1.7986806 
O     3.0217024    3.3672852   -2.0944888 
O     5.4062619    3.4380247   -1.9211277 
H     6.2156519    2.8880008   -1.6747279 
C     4.6817256    0.3449359   -2.5690764 
H     4.9530191    1.1537280   -0.5792385 
C     3.7344715    0.3753440   -3.7521890 
H     4.7847783   -0.6964554   -2.1930864 
H     5.6965586    0.6517075   -2.9057759 
C     2.7118827   -0.4633723   -3.9899931 
C     2.2717713   -1.5292170   -3.2712305 
C     1.1775332   -2.2070927   -3.7210014 
C     0.5441621   -1.8141886   -4.8673037 
C     0.9991393   -0.7375481   -5.5689185 
C     2.0850855   -0.0841793   -5.1051483 
H     2.7577134   -1.8340142   -2.3480272 
H     0.8028043   -3.0594119   -3.1586682 
H    -0.3302538   -2.3578445   -5.2161263 
H     0.5016939   -0.4059335   -6.4739812 
N     2.6931759    1.0720463   -5.6629720 
C     3.7461926    1.3119780   -4.7177027 
H     2.4413394    1.5989490   -6.5310905 
H     4.4212296    2.1680178   -4.7452134 
