48
Energy =
C     2.3625917   -4.3174737    1.9901842 
C     2.3871134   -3.6650160    0.8005220 
C     3.1139603   -3.8693926    3.0315302 
C     3.8830360   -2.7675827    2.8753768 
C     3.9121749   -2.1119255    1.6876303 
C     3.1712727   -2.5640061    0.6396276 
H     1.7740410   -4.0303185   -0.0190457 
H     4.4715022   -2.4143943    3.7152739 
H     4.5266980   -1.2196836    1.5847976 
H     1.7381005   -5.1962605    2.1076321 
C     3.1835911   -1.8148255   -0.6723408 
C     2.2117832   -0.5993496   -0.6433050 
H     2.9340068   -2.5093829   -1.5044398 
H     4.2271873   -1.4878373   -0.8828222 
C     2.9495272    0.7180006   -0.8125966 
O     3.1112771   -4.5192949    4.2701780 
H     2.5072718   -5.3328574    4.3085369 
O     3.6200690    1.2583173    0.2781363 
N     1.1528497   -0.7619261   -1.6534806 
H     1.7251273   -0.5097798    0.3586774 
H     1.5780773   -0.8878931   -2.6030361 
H     0.6009429   -1.6255924   -1.4374915 
N     3.2120217    1.2493295   -2.1180188 
C     4.5838563    1.1077938   -2.6448211 
H     2.4329259    1.7315154   -2.6181757 
C     5.1332496    2.4392097   -3.1541910 
O     6.3657842    2.8870968   -2.6950916 
O     4.4643747    3.1975269   -4.1183649 
H     3.5942774    2.7697531   -4.3897026 
C     4.5824273    0.0184514   -3.7374894 
H     5.2794834    0.7987470   -1.8271071 
C     5.9887944   -0.3892095   -4.1211385 
H     4.0167951    0.3583409   -4.6314519 
H     4.0482489   -0.8796616   -3.3607127 
C     6.7438076    0.1203550   -5.1085605 
C     6.4553441    1.0837090   -6.0212778 
C     7.4166523    1.4309377   -6.9241682 
C     8.6381519    0.8166753   -6.9036695 
C     8.9060281   -0.1480824   -5.9785409 
C     7.9385962   -0.4741384   -5.0957386 
H     5.4909318    1.5807660   -6.0369419 
H     7.2117841    2.2065297   -7.6583886 
H     9.4007269    1.1035618   -7.6234064 
H     9.8716635   -0.6406766   -5.9438882 
N     8.0182601   -1.4355081   -4.0528003 
C     6.7163244   -1.3114401   -3.4664085 
H     8.8109449   -2.0656091   -3.7917226 
H     6.3767750   -1.8730656   -2.5996586 
