48
Energy =
C    -4.2141797    0.2308610   -0.1172091 
C    -3.0351867    0.7420455    0.3183826 
C    -4.9676138    0.9198460   -1.0153810 
C    -4.5348253    2.1170792   -1.4718553 
C    -3.3560588    2.6330368   -1.0401737 
C    -2.5997836    1.9487529   -0.1386659 
H    -2.4413563    0.1763105    1.0315690 
H    -5.1451681    2.6560202   -2.1881944 
H    -3.0246992    3.5959024   -1.4199926 
H    -4.5511919   -0.7310844    0.2535016 
C    -1.2771581    2.5153070    0.3287166 
C    -0.1437668    2.2883032   -0.7032562 
H    -0.9844507    2.0776352    1.3094208 
H    -1.4048719    3.6057083    0.5175780 
C     1.1088787    3.0864106   -0.3643366 
O    -6.1865106    0.4208297   -1.4860834 
H    -6.4420696   -0.4780423   -1.0921215 
O     1.1878022    3.8214968    0.8157703 
N     0.1666742    0.8519568   -0.8166464 
H    -0.4747182    2.6747157   -1.6953419 
H     0.3666310    0.4527971    0.1318464 
H    -0.6607137    0.3382192   -1.2028865 
N     2.1531837    3.2282264   -1.3349012 
C     3.5063422    2.8050373   -0.9290638 
H     1.9389300    3.6388361   -2.2718905 
C     4.5833530    3.7609613   -1.4419859 
O     4.3615540    4.5171556   -2.5888740 
O     5.8387548    3.8292302   -0.8311353 
H     5.8889686    3.2554927   -0.0015461 
C     3.7486139    1.3520125   -1.3903485 
H     3.5883320    2.8286439    0.1823908 
C     3.6516541    1.1901456   -2.8939660 
H     2.9903983    0.6949160   -0.9081248 
H     4.7377456    0.9946111   -1.0308403 
C     4.6421224    1.3229721   -3.7920175 
C     5.9580239    1.6043728   -3.6066778 
C     6.7637218    1.6907953   -4.7037816 
C     6.2499382    1.4942180   -5.9555912 
C     4.9264731    1.2111411   -6.1181048 
C     4.1492520    1.1323279   -5.0176123 
H     6.3701862    1.7673195   -2.6155170 
H     7.8190952    1.9231548   -4.5816369 
H     6.8983183    1.5681100   -6.8251126 
H     4.5023496    1.0555041   -7.1042822 
N     2.7567787    0.8556956   -4.9698025 
C     2.5148846    0.9158233   -3.5578223 
H     2.0908381    0.6612380   -5.7523657 
H     1.5436122    0.7681176   -3.0918201 
