48
Energy =
C     1.7498975    3.9895714    1.0798948 
C     1.5186063    3.0690635    0.1015634 
C     0.8142721    4.9228064    1.3867420 
C    -0.3607375    4.9319767    0.7230640 
C    -0.6119672    4.0190172   -0.2465548 
C     0.3137251    3.0692262   -0.5611572 
H     2.3892379    2.1840779   -0.0540248 
H    -1.0974693    5.6876285    0.9723420 
H    -1.5596677    4.0660643   -0.7758444 
H     2.6912406    3.9761414    1.6139555 
C     0.0354836    2.1191641   -1.7192813 
C     0.2403295    0.6085231   -1.4399909 
H     0.6603720    2.4341276   -2.5840560 
H    -1.0129018    2.2462399   -2.0684566 
C     1.7008618    0.1863669   -1.5034966 
O     1.0308238    5.8792957    2.3858960 
H     1.9498903    5.8405778    2.8122338 
O     2.3423282   -0.3396927   -0.3827529 
N    -0.4186241    0.2072445   -0.1855523 
H    -0.2395827    0.0440740   -2.2722830 
H     0.0923858    0.6155999    0.6319154 
H    -1.3923596    0.5902254   -0.1607256 
N     2.3921782    0.1744141   -2.7627792 
C     3.6747094    0.9252587   -2.6772689 
H     2.5711965   -0.8405787   -2.9394041 
C     3.4657450    2.4308011   -2.8714643 
O     3.6108101    3.0060416   -4.1340027 
O     3.1560900    3.2599411   -1.7863179 
H     2.7579991    2.6740994   -0.8687340 
C     4.6727625    0.3523938   -3.7173680 
H     4.1414655    0.8214302   -1.6682141 
C     6.0559612    0.9477707   -3.5585728 
H     4.2855407    0.5450729   -4.7445239 
H     4.7468257   -0.7517750   -3.6157714 
C     6.9920349    0.5715541   -2.6734233 
C     6.9613678   -0.4162998   -1.7419412 
C     8.0549014   -0.5888439   -0.9451856 
C     9.1481530    0.2205620   -1.0874648 
C     9.1540939    1.2086740   -2.0269309 
C     8.0615821    1.3577200   -2.8048903 
H     6.0919580   -1.0566768   -1.6220394 
H     8.0561662   -1.3721682   -0.1906182 
H    10.0148004    0.0784196   -0.4464933 
H    10.0104516    1.8635022   -2.1483894 
N     7.8570631    2.3277302   -3.8220115 
C     6.5285851    1.9979706   -4.2540128 
H     8.5029055    3.0748778   -4.1667699 
H     5.9653663    2.5498024   -5.0080460 
