48
 energy: -9.290356812138 gnorm: 0.000374229507 xtb: 6.6.0 (2ccbbd7)
C            0.73685713108787        4.58619716398012        2.70528863119574
C            0.16963516418304        3.90339230713955        1.65539178195353
C            2.08811691079679        4.93279135586047        2.68084837988987
C            2.84341625436180        4.56156814170807        1.56932694130238
C            2.26778175940263        3.87983308475856        0.52504902093313
C            0.92117249953494        3.54654076069849        0.54519024186000
H           -0.87222265866159        3.63436296770926        1.68908243760139
H            3.88835435072283        4.81718657138241        1.54910353824298
H            2.87918265465529        3.58945017543848       -0.31189725340044
H            0.14264979895006        4.86036136422197        3.55845381137501
C            0.29496397800611        2.78429333509900       -0.58254756294520
C            0.50925563696608        1.26671923002691       -0.48437526242069
H            0.69736516423027        3.15667218940765       -1.53019404022561
H           -0.77850830543412        2.99671950291066       -0.60563417181752
C            1.97885272316592        0.93356647143528       -0.55082190616871
O            2.68651212023936        5.62438800550491        3.71619448678655
H            2.02998805279802        5.81014515820923        4.42174088092000
O            2.55816735006036        0.59089072534812        0.45884727927225
N           -0.05244220730722        0.72825617719723        0.74223494173160
H            0.00581496321553        0.77414655773552       -1.33179526641584
H            0.13913106290772       -0.26415130346582        0.78194153792027
H            0.46947404582160        1.13101704150295        1.50760450885345
N            2.62030858392378        1.07755251552959       -1.76311082451294
C            4.05832535207265        1.30155990032326       -1.79475748134506
H            2.12561421514376        1.49180481552849       -2.55348654066068
C            4.31555461179323        2.72989989105543       -2.23100106795022
O            4.66710067389358        3.51746064018021       -1.37897373744726
O            4.09457410111813        3.03564181156343       -3.53253164983572
H            3.77937026905600        2.25286058115726       -4.03439359133804
C            4.80288814997215        0.26789625896039       -2.64008550721061
H            4.40710049040824        1.22044472651310       -0.75394139048061
C            4.74211586185084       -1.12436694047493       -2.10095224401522
H            5.85161683911398        0.56779144450387       -2.73600837568162
H            4.39377517874792        0.26793564123074       -3.65346610788448
C            5.36601996416346       -2.26216699296549       -2.69296916389644
C            6.15029378525199       -2.42664804968652       -3.84754759598421
C            6.60978278972317       -3.67740045264091       -4.15475124449283
C            6.31093917589179       -4.78200876624531       -3.34043224970146
C            5.55039978186222       -4.64503446423788       -2.21149622580706
C            5.06962727837443       -3.37226851801958       -1.87893785874538
H            6.37669030350409       -1.57712029550985       -4.46707291118646
H            7.21226049361415       -3.82035127051555       -5.03640755661646
H            6.68861896432042       -5.75387863364810       -3.61185958316060
H            5.31674197342548       -5.48523061783492       -1.58261999425442
N            4.29185677760249       -2.91915532134192       -0.82849881158707
C            4.09896567148862       -1.56914782336358       -0.97159165594159
H            3.93088571588973       -3.50503437527922       -0.07330589809380
H            3.51280598485596       -0.96184909018713       -0.30056504695050
