48
Energy =
C    -1.4131933   -1.5352112   -2.1116773 
C    -0.0835228   -1.7162931   -2.3200127 
C    -2.1004890   -2.3855524   -1.3042061 
C    -1.4519211   -3.4112243   -0.7084299 
C    -0.1227139   -3.5959284   -0.9110957 
C     0.5706871   -2.7487835   -1.7207390 
H     0.4511622   -1.0255163   -2.9655938 
H    -2.0118266   -4.0803703   -0.0653083 
H     0.3791638   -4.4240003   -0.4192152 
H    -1.9249911   -0.7070943   -2.5898918 
C     2.0565354   -2.9455085   -1.9404625 
C     2.9364932   -2.0824204   -1.0019618 
H     2.3055172   -2.7141366   -3.0000855 
H     2.3210442   -4.0171017   -1.8034490 
C     2.7992579   -0.5949281   -1.2948638 
O    -3.4705565   -2.2282689   -1.0719240 
H    -3.8727233   -1.4220325   -1.5366061 
O     2.3020190    0.2856147   -0.3403206 
N     2.6766816   -2.4024682    0.4118967 
H     4.0026363   -2.3214364   -1.2154127 
H     1.7299259   -2.0433712    0.6875231 
H     2.6751724   -3.4384129    0.5550443 
N     3.2952773   -0.0722438   -2.5351819 
C     4.5646847    0.6694010   -2.3278090 
H     2.5499578    0.5770038   -2.8833989 
C     4.3659632    2.1347912   -1.9095423 
O     3.3109480    2.8732923   -2.4346822 
O     5.3115682    2.7972579   -1.1244738 
H     6.0141360    2.1704805   -0.7627012 
C     5.4193450    0.5600133   -3.6066269 
H     5.1604435    0.1836443   -1.5190494 
C     4.7284020    1.1327146   -4.8272033 
H     5.6477241   -0.5131225   -3.7910723 
H     6.4006267    1.0607625   -3.4541285 
C     4.7905764    2.3957768   -5.2807934 
C     5.4764327    3.4647920   -4.7991801 
C     5.3591727    4.6575256   -5.4502602 
C     4.5693818    4.7634754   -6.5615360 
C     3.8894925    3.6773953   -7.0269577 
C     4.0204873    2.5085282   -6.3650836 
H     6.0923580    3.3899040   -3.9077235 
H     5.8886989    5.5307686   -5.0760653 
H     4.4766003    5.7195779   -7.0708785 
H     3.2532158    3.7459670   -7.9027348 
N     3.3943444    1.2715177   -6.6772457 
C     3.9027669    0.4363214   -5.6276148 
H     2.7439696    1.0402811   -7.4635087 
H     3.6400186   -0.6098741   -5.4840708 
