48
Energy =
C     1.4145677   -5.1634252    0.4400772 
C     1.5575823   -3.9310305    0.9903577 
C     1.0120813   -5.2925061   -0.8526454 
C     0.7516285   -4.1863387   -1.5848538 
C     0.8961408   -2.9520090   -1.0416755 
C     1.2974740   -2.8170785    0.2523108 
H     1.8876947   -3.8440281    2.0223829 
H     0.4304966   -4.3022419   -2.6135919 
H     0.6944058   -2.0748651   -1.6519718 
H     1.6268928   -6.0446406    1.0356218 
C     1.4880165   -1.4378712    0.8426690 
C     2.8326030   -0.8138420    0.4039744 
H     1.4266926   -1.4609941    1.9537736 
H     0.6419602   -0.7931326    0.5132309 
C     2.7999722    0.6962228    0.5246899 
O     0.8627355   -6.5466693   -1.4536125 
H     1.0632340   -7.3252931   -0.8351541 
O     2.5385162    1.2885211    1.7533867 
N     3.9518114   -1.3805379    1.1730496 
H     2.9986632   -1.0240699   -0.6725687 
H     3.8232604   -1.1690259    2.1927336 
H     3.9718725   -2.4207940    1.0619722 
N     2.6606381    1.4940609   -0.6529640 
C     3.8951196    2.0733983   -1.2143732 
H     1.7107224    1.6320679   -1.0677699 
C     3.6644607    3.4989887   -1.7058997 
O     4.2326051    3.9300371   -2.8985474 
O     2.9410641    4.4170420   -0.9484013 
H     2.6318273    4.0136672   -0.0732627 
C     4.4795247    1.1206615   -2.2926904 
H     4.6620916    2.1998000   -0.4123496 
C     3.4449282    0.5668179   -3.2621543 
H     4.9872135    0.2929228   -1.7575678 
H     5.2759799    1.6350288   -2.8772921 
C     3.2399788   -0.7274682   -3.5778237 
C     3.8658645   -1.8517076   -3.1343376 
C     3.4582263   -3.0587151   -3.6203971 
C     2.4500064   -3.1285244   -4.5397395 
C     1.8416548   -1.9912886   -4.9783002 
C     2.2584402   -0.8086491   -4.4794908 
H     4.6733011   -1.8127902   -2.4107920 
H     3.9394998   -3.9716490   -3.2758741 
H     2.1353072   -4.0956163   -4.9254789 
H     1.0450629   -2.0284974   -5.7138942 
N     1.7691506    0.4790418   -4.8179615 
C     2.5981721    1.3132711   -3.9979187 
H     1.0059120    0.7474718   -5.4815418 
H     2.5555371    2.4007373   -3.9984531 
