48
Energy =
C     4.7879997    4.7723667    4.0016779 
C     4.5681835    4.3065553    2.7459778 
C     3.8653131    4.5645226    4.9787855 
C     2.7280920    3.8907685    4.6921054 
C     2.5028887    3.4227873    3.4382675 
C     3.4214683    3.6317443    2.4560511 
H     5.3161789    4.4756668    1.9735510 
H     2.0012461    3.7301937    5.4810155 
H     1.5845719    2.8801890    3.2283622 
H     5.7038257    5.3101470    4.2226705 
C     3.1822566    3.0946084    1.0632500 
C     3.4551331    1.5733280    0.9667866 
H     3.8135336    3.6369983    0.3220532 
H     2.1284251    3.3048088    0.7710225 
C     3.0759277    1.0376330   -0.4034875 
O     4.0608517    5.0296172    6.2830245 
H     4.9339273    5.5280978    6.4179027 
O     1.9640426    0.2122548   -0.5226914 
N     4.8617578    1.2700141    1.2821347 
H     2.7959925    1.0342778    1.6879371 
H     5.4942225    1.9481096    0.7930478 
H     5.0223229    1.3935747    2.3090889 
N     3.5829173    1.6576424   -1.5890338 
C     4.9398393    1.2941548   -2.0308104 
H     2.9515962    2.2757310   -2.1461823 
C     5.8305405    2.5278932   -2.0356513 
O     5.3759463    3.6981613   -2.6316685 
O     7.1100186    2.5138204   -1.4773691 
H     7.3718647    1.6031429   -1.1297192 
C     4.8637116    0.6702882   -3.4360182 
H     5.3966129    0.5521080   -1.3348747 
C     4.3491031   -0.7515738   -3.3766994 
H     5.8638789    0.6898784   -3.9207124 
H     4.2031042    1.2862186   -4.0861477 
C     5.0851175   -1.8750168   -3.3438596 
C     6.4336355   -2.0374623   -3.3824409 
C     6.9362958   -3.3039562   -3.3196423 
C     6.0951541   -4.3768845   -3.2147011 
C     4.7456812   -4.1896883   -3.1698129 
C     4.2722453   -2.9278903   -3.2379700 
H     7.1073435   -1.1893931   -3.4545105 
H     8.0120461   -3.4606060   -3.3485729 
H     6.5038523   -5.3828393   -3.1610319 
H     4.0644663   -5.0286348   -3.0771620 
N     2.9139189   -2.5181779   -3.1833501 
C     3.0531645   -1.0925526   -3.2665703 
H     2.0469774   -3.0990932   -3.1141267 
H     2.2302407   -0.3841523   -3.1763943 
