48
Energy =
C    -1.9406928    0.1763253   -6.9705028 
C    -1.2741119    0.1284460   -5.7891974 
C    -1.7007898   -0.7577749   -7.9291529 
C    -0.7931267   -1.7334881   -7.6989759 
C    -0.1232486   -1.7861372   -6.5199241 
C    -0.3631831   -0.8561158   -5.5550721 
H    -1.4730152    0.8846004   -5.0339770 
H    -0.6082047   -2.4703383   -8.4728626 
H     0.6079670   -2.5738047   -6.3584475 
H    -2.6644985    0.9643818   -7.1475942 
C     0.3917212   -0.8983614   -4.2445321 
C     1.5405755    0.1352372   -4.1968771 
H     0.8001123   -1.9168844   -4.0551614 
H    -0.3232290   -0.7055383   -3.4136891 
C     2.1161811    0.2349585   -2.7955493 
O    -2.3706029   -0.7374551   -9.1569709 
H    -3.0287529    0.0277850   -9.2551607 
O     2.4520575   -0.9164403   -2.0908925 
N     2.5951873   -0.2116783   -5.1666420 
H     1.1320220    1.1452212   -4.4398032 
H     2.9040694   -1.2034849   -5.0188913 
H     2.2161051   -0.1427148   -6.1410822 
N     2.3248113    1.5112575   -2.1753505 
C     3.6346358    2.1948882   -2.2785131 
H     1.5292585    1.9333714   -1.6459127 
C     3.5634312    3.3962593   -3.2183020 
O     3.7306178    4.6719625   -2.6945666 
O     3.3272173    3.2639080   -4.5865515 
H     3.2238155    2.2980041   -4.8554011 
C     4.7896575    1.2154960   -2.6197377 
H     3.8562173    2.6277035   -1.2755876 
C     6.1457396    1.8697737   -2.4625525 
H     4.6714122    0.7983044   -3.6439906 
H     4.7381471    0.3405938   -1.9316608 
C     6.8817707    2.4605629   -3.4191949 
C     6.6385093    2.6019285   -4.7478220 
C     7.5583325    3.2604830   -5.5094599 
C     8.6961461    3.7611746   -4.9400326 
C     8.9205191    3.6069585   -3.6043803 
C     7.9953738    2.9519793   -2.8718123 
H     5.7356872    2.2123001   -5.2060743 
H     7.3811637    3.3929720   -6.5742107 
H     9.4219751    4.2887291   -5.5538321 
H     9.8153772    4.0020548   -3.1357857 
N     8.0332285    2.6939228   -1.4754321 
C     6.7956598    1.9951449   -1.2917472 
H     8.7688356    2.9432190   -0.7751797 
H     6.4307434    1.6335910   -0.3326612 
