48
 energy: -9.062152096878 gnorm: 0.000566357771 xtb: 6.6.0 (2ccbbd7)
C            2.16809744359820        0.87143529837876        4.04000307701549
C            2.98686492130344        0.17110897489619        3.18582778631858
C            2.14020046481473        2.26623162385165        4.01323097115302
C            2.95898730093862        2.92523551236521        3.09705140088919
C            3.77450628496871        2.21770855138234        2.24746795224322
C            3.80183548157103        0.83023137874138        2.27766860499707
H            2.98877440086650       -0.90523513677875        3.20478800872416
H            2.92499197379000        3.99975589040676        3.06058549828203
H            4.38001996023187        2.74366447853308        1.52909274428515
H            1.53492550367783        0.34833259518843        4.73401338038645
C            4.66523004541919        0.05930903578217        1.32508317720790
C            3.87008161166272       -0.82863662519828        0.34590452772687
H            5.36477617090021       -0.56008020542136        1.89673803157859
H            5.30527169612155        0.75211696541673        0.77457127789425
C            2.57016751739855       -0.20916274129162       -0.14719445189801
O            1.33190450255746        3.00092799254431        4.85942474443785
H            0.79443246859078        2.39962381520995        5.41852701927260
O            1.54299917272047       -0.80653564872781        0.11415705917812
N            4.68039864222709       -1.35299459011995       -0.75184768573317
H            3.53611379652602       -1.71642798641915        0.91100224629036
H            4.92530575176370       -0.66034390226241       -1.44719381362921
H            5.54380424994480       -1.75197565944443       -0.40465091656938
N            2.52700607155103        0.97570167530869       -0.85219720674912
C            3.69665634865854        1.70899617652947       -1.33488926679420
H            1.65174567861251        1.24155605008195       -1.29903550413561
C            3.72893684558453        3.11982757489108       -0.82426439933859
O            4.90791321085811        3.80096112789332       -0.88507062401665
O            2.58496211994227        3.67243915409035       -0.29489997315392
H            1.90371271371302        2.97506945234392       -0.15633190788698
C            3.82608548226170        1.62340223540457       -2.87311549533971
H            4.57303451704509        1.21484600122498       -0.90753219367353
C            5.17159549518620        1.11895336922436       -3.27405400616066
H            3.64404416080924        2.60571933871891       -3.32115652911347
H            3.05378885436959        0.95594142567263       -3.26958978373707
C            6.40825227123313        1.58067855339278       -2.74049944717523
C            6.71599390242723        2.58162815157717       -1.81316437097832
C            8.01793435690695        2.78106903322654       -1.46580136683025
C            9.04227317778868        1.99686307435456       -2.02416647004953
C            8.76515856367527        1.00768230349668       -2.92953336551887
C            7.43052826535087        0.78907969713140       -3.29617652565974
H            5.77774082691533        3.22282880326493       -1.33451756569132
H            8.26204384704100        3.55093466886633       -0.75307398629898
H           10.06293211827736        2.17851162729986       -1.73102010133362
H            9.54223807163386        0.40002974369628       -3.35714985632804
N            6.82426944833829       -0.12538640357685       -4.14094193077654
C            5.46536585213404        0.08217241546369       -4.12496900861711
H            7.32392421681266       -0.83102550315623       -4.68518413761558
H            4.74484231144979       -0.49882764478460       -4.67769874923841
