48
Energy =
C     0.6634677    4.8664494    1.7754567 
C     0.1259319    3.7246483    1.2759701 
C     1.7547969    4.8112024    2.5847757 
C     2.3033525    3.6123878    2.8858011 
C     1.7705405    2.4678898    2.3887976 
C     0.6733774    2.5165022    1.5840392 
H    -0.7435299    3.7838919    0.6262401 
H     3.1774832    3.5809685    3.5269873 
H     2.2328041    1.5150683    2.6356997 
H     0.2199687    5.8238931    1.5251652 
C     0.0862831    1.2455345    1.0074515 
C     0.5460034    1.0126420   -0.4498737 
H    -1.0229929    1.3118129    1.0449304 
H     0.3661321    0.3667688    1.6321501 
C     2.0508914    0.7988676   -0.5587329 
O     2.3307206    5.9681543    3.1194529 
H     1.8790644    6.8283256    2.8286698 
O     2.7234911    0.0816892    0.4309710 
N    -0.1838831   -0.1250352   -1.0300342 
H     0.3091746    1.9236506   -1.0462864 
H     0.0200294   -0.9920883   -0.4752756 
H    -1.2149662    0.0491912   -0.9799933 
N     2.7321060    1.1397291   -1.7775819 
C     4.2071048    1.1528355   -1.7870577 
H     2.1757855    1.3913374   -2.6268196 
C     4.7240172    2.4573219   -2.3794613 
O     4.1489723    2.9558583   -3.5426966 
O     5.8117021    3.1380019   -1.8290101 
H     6.1769213    2.6940638   -1.0004252 
C     4.7176971   -0.0493601   -2.6077505 
H     4.6120168    1.0908553   -0.7513114 
C     4.4263669   -1.3639047   -1.9166669 
H     5.8173545    0.0388284   -2.7588611 
H     4.2621014   -0.0357565   -3.6227265 
C     3.3210912   -2.1179532   -2.0374144 
C     2.2169467   -1.9327475   -2.8059424 
C     1.2140334   -2.8541242   -2.7341003 
C     1.3279455   -3.9358811   -1.9056891 
C     2.4460587   -4.1024404   -1.1437709 
C     3.4248198   -3.1773269   -1.2328452 
H     2.1185412   -1.0703724   -3.4569442 
H     0.3167705   -2.7221990   -3.3337556 
H     0.5230689   -4.6644664   -1.8520904 
H     2.5514851   -4.9526507   -0.4786064 
N     4.6552641   -3.1598063   -0.5230580 
C     5.2386854   -1.9472586   -1.0173377 
H     5.0343262   -3.8496548    0.1651148 
H     6.1957690   -1.5488999   -0.6895606 
