48
 energy: -9.297359102821 gnorm: 0.000803267455 xtb: 6.6.0 (2ccbbd7)
C           -2.58700449233495       -0.51139815700838        2.16565284297700
C           -1.26255192420933       -0.24787774570232        1.90781882222030
C           -3.51076153741699        0.52918013608436        2.26960783048927
C           -3.05503076558357        1.83658792071572        2.10283257626367
C           -1.72929356165567        2.09203921978844        1.84654536689088
C           -0.81263068481855        1.05561797107648        1.75202202281602
H           -0.55949107443249       -1.05833053799475        1.81947367364363
H           -3.76784619397891        2.63819010218357        2.17924279772320
H           -1.39016325064522        3.10527253551106        1.71457574772236
H           -2.92492936338824       -1.52471128363467        2.28905305241808
C            0.62060638351960        1.33803853313226        1.42998382011055
C            0.85386498916148        1.62292729890471       -0.05484372674941
H            1.24345334002400        0.48949260211993        1.72764995017999
H            0.97746743218071        2.18589357833183        2.02466516764118
C            2.30020760489374        1.98998638550895       -0.29409980873158
O           -4.84871637649080        0.29982712566638        2.52787885402127
H           -5.01238714078444       -0.66236906116655        2.63098124544422
O            2.91713097374216        2.63124507574973        0.53413000482355
N            0.45840596499391        0.49119302283494       -0.88680262817016
H            0.24147430879437        2.48634336217308       -0.35776974141574
H            1.06099105380596       -0.31959591728175       -0.72252878325598
H           -0.48996518133120        0.21137596098875       -0.67667203323138
N            2.88922382557232        1.55651169551916       -1.46287098883802
C            4.32482608798078        1.29062123040967       -1.51140503755763
H            2.34114441258228        1.00813990187852       -2.13320441720038
C            5.03800054796605        2.47532248526213       -2.12633752544835
O            5.74764701236315        2.31967265924978       -3.09483184342255
O            4.78275953605262        3.63962314926231       -1.48256360924749
H            4.14621030036507        3.44791844732149       -0.74578592974024
C            4.60675518447616       -0.03988221884868       -2.21088545076920
H            4.65416791432514        1.21263167862401       -0.46423487034578
C            3.65101718912179       -1.08858556692576       -1.74386721304444
H            5.64198530247489       -0.35413997864212       -2.04476660813796
H            4.50160772684179        0.10679671717502       -3.28951988954327
C            2.69734354003667       -1.78476075116358       -2.54639804721946
C            2.47963496818190       -1.85008827005847       -3.93338466683567
C            1.44383543918352       -2.61206456259763       -4.39878699228839
C            0.60568872781377       -3.31610302174349       -3.51914105732077
C            0.79269382301832       -3.25994603384099       -2.16518096746160
C            1.84656659330213       -2.48370097046798       -1.66734740380995
H            3.12202683289473       -1.30946959824381       -4.60548906663555
H            1.26520935906136       -2.67419090909334       -5.45958842013531
H           -0.20035158919790       -3.90812376310495       -3.92009798717685
H            0.15081215256121       -3.78911942246392       -1.48401889692575
N            2.24677711093413       -2.18798112369453       -0.37509988229020
C            3.35636836432488       -1.37992787261773       -0.43315079915215
H            1.87176601858628       -2.63493796000110        0.46467931825366
H            3.86745077536103       -0.97785857962017        0.42712269585723
