48
 energy: -9.277874838307 gnorm: 0.000673107769 xtb: 6.6.0 (2ccbbd7)
C            2.59724755205353       -5.61877781714761       -3.19100211140249
C            1.91296419521466       -4.44800283579262       -2.96407868993767
C            3.82084489131477       -5.60775892526854       -3.86167769771611
C            4.32492930730750       -4.38269145802737       -4.29697719261757
C            3.63439235349943       -3.21730454989757       -4.06696020417902
C            2.41890617802531       -3.23120262233799       -3.39851892916270
H            0.97225439018174       -4.46790905582498       -2.44081380166485
H            5.26665600565086       -4.37392486189512       -4.81608615343237
H            4.03541258053384       -2.27813985820220       -4.40682518484281
H            2.19588002083456       -6.55636068434562       -2.85050601154977
C            1.71133041237798       -1.94860353183212       -3.09277583399681
C            2.29318149885836       -1.23351805627354       -1.87091909726078
H            0.64739951492583       -2.13399565942771       -2.91824512435065
H            1.75458534868701       -1.28806068516469       -3.96481100332493
C            1.66718905735999        0.12993192238041       -1.71354527599133
O            4.53752524122897       -6.76477864059904       -4.10054159015417
H            4.05021932548378       -7.54102466003817       -3.74961657450509
O            0.46131161651739        0.18028142832541       -1.58702642304614
N            2.09459027474526       -1.98654053811068       -0.64362849833792
H            3.37467079121204       -1.12241398536132       -2.01188489702312
H            1.12220853502660       -1.91166404089203       -0.37535679943752
H            2.30856305316975       -2.96567666156264       -0.78437833733084
N            2.44586146394957        1.26679430663130       -1.71217955206048
C            3.90234729882562        1.31192544492438       -1.85181937308106
H            2.01222379028807        2.18401228716093       -1.58075861722698
C            4.39159278876900        2.65320541453950       -1.34357261749391
O            3.66273037584651        3.60704357783893       -1.50358186517745
O            5.62447955037268        2.69306672856266       -0.77825017976787
H            6.05447950076735        1.81090967394979       -0.79836491183342
C            4.33323227547561        1.10913445062913       -3.30317923533224
H            4.32826483193969        0.52689669146535       -1.21428075779233
C            5.81427642245544        1.06526756906609       -3.47015183922457
H            3.92141141481902        1.92790725143136       -3.90113908762732
H            3.89153368895751        0.19513082424386       -3.70871520010103
C            6.67896372614698       -0.01949942204956       -3.13398733224198
C            6.44932380439303       -1.31312416962380       -2.63402693953552
C            7.52222950745037       -2.12648489757572       -2.39671003594573
C            8.83418872229612       -1.68873879914792       -2.63925199614750
C            9.08348379368468       -0.43321894037103       -3.12138530565302
C            7.99751179261449        0.41446123670300       -3.37286083291524
H            5.44655107808506       -1.64861527206640       -2.44570875707304
H            7.36070601913323       -3.12117879336198       -2.01547075021630
H            9.65763340080324       -2.35414193783402       -2.43909948574976
H           10.08471623254130       -0.08717190724534       -3.30561678749160
N            7.93044438582597        1.71826042024328       -3.83055623996009
C            6.61462285644152        2.10502789584852       -3.87554462482928
H            8.73929293035475        2.30236289149123       -4.05003895641407
H            6.26896579939240        3.08656571899552       -4.15904353399201
