48
Energy =
C     2.7089256   -2.3692518    4.4411262 
C     2.6696612   -1.6038280    3.3210776 
C     3.5827600   -3.4075817    4.5291585 
C     4.4121606   -3.6723852    3.4942240 
C     4.3770094   -2.9105464    2.3717297 
C     3.5070300   -1.8677109    2.2805142 
H     1.9638562   -0.7783318    3.2629578 
H     5.1041470   -4.5031448    3.5765008 
H     5.0493375   -3.1417065    1.5500329 
H     2.0388416   -2.1495258    5.2651889 
C     3.4457605   -1.0278100    1.0246707 
C     2.2833413   -1.4640630    0.1014807 
H     4.4161137   -1.0686798    0.4850985 
H     3.3130766    0.0418764    1.3126811 
C     2.0005805   -0.4199870   -0.9724072 
O     3.6470446   -4.2176863    5.6677598 
H     2.9994412   -3.9490805    6.4004725 
O     1.1066574    0.6006941   -0.6801082 
N     2.5222061   -2.8054236   -0.4654555 
H     1.3426315   -1.4861329    0.7040282 
H     3.5265738   -2.9215082   -0.7325362 
H     2.3341085   -3.5216890    0.2762690 
N     2.5000569   -0.5098968   -2.3191703 
C     3.9653032   -0.3129356   -2.4080009 
H     2.2427204   -1.4646544   -2.6589459 
C     4.4737641    0.9601302   -1.7269276 
O     5.7507337    0.9504072   -1.1812278 
O     3.7608149    2.1564921   -1.7237138 
H     2.8288927    2.0325095   -2.0980177 
C     4.3942818   -0.3492505   -3.8902402 
H     4.4861191   -1.1556320   -1.9040321 
C     3.7846560    0.7771239   -4.7002669 
H     4.0903122   -1.3222693   -4.3351761 
H     5.5038317   -0.3162386   -3.9626474 
C     4.3159029    1.9895838   -4.9333584 
C     5.5017188    2.5167630   -4.5309554 
C     5.7993119    3.7972047   -4.8954023 
C     4.9180586    4.5243408   -5.6466008 
C     3.7315158    3.9769253   -6.0344377 
C     3.4601030    2.7085383   -5.6624426 
H     6.1954235    1.9521087   -3.9143682 
H     6.7370200    4.2460753   -4.5755425 
H     5.1594041    5.5468955   -5.9265067 
H     3.0161270    4.5436955   -6.6207638 
N     2.2810524    1.9674331   -5.9415464 
C     2.5696188    0.7313334   -5.2744518 
H     1.4368620    2.2479195   -6.4923308 
H     1.8835514   -0.1111151   -5.2127923 
