48
Energy =
C     1.5479750    0.1249897    3.0441128 
C     1.0940845    1.0987961    2.2148676 
C     1.1059389   -1.1531727    2.9029910 
C     0.2103926   -1.4472737    1.9332045 
C    -0.2460216   -0.4774192    1.1008818 
C     0.1950212    0.8031445    1.2356145 
H     1.4636752    2.1151670    2.3310226 
H    -0.1350864   -2.4701683    1.8314482 
H    -0.9623046   -0.7341661    0.3250187 
H     2.2678621    0.3706784    3.8175780 
C    -0.2953869    1.8861332    0.2967215 
C     0.6046409    2.0879121   -0.9461412 
H    -0.3620595    2.8510824    0.8479778 
H    -1.3330416    1.6622088   -0.0335604 
C     2.0263514    2.4765586   -0.5746592 
O     1.5574774   -2.1811052    3.7368670 
H     2.2158994   -1.8762470    4.4454222 
O     2.3271584    3.6726421   -0.4578967 
N     0.5533598    0.9168929   -1.8398833 
H     0.2153595    2.9703617   -1.5095589 
H     0.9496041    0.0779584   -1.3581870 
H    -0.4406421    0.7014202   -2.0849519 
N     3.0689499    1.4987838   -0.4303860 
C     4.3555169    1.9264047   -1.0043165 
H     2.8994314    0.5766978    0.0280130 
C     4.3802531    3.4579154   -1.1339981 
O     5.4516255    4.1042472   -1.7434488 
O     3.4292237    4.1277856   -0.6987363 
H     3.0536100    3.9027884    0.1976589 
C     4.5232300    1.2149968   -2.3622030 
H     5.1767136    1.6444234   -0.3100783 
C     5.9596927    1.2186019   -2.8371765 
H     3.8572691    1.6937679   -3.1162014 
H     4.1732261    0.1631417   -2.2801717 
C     6.9221791    0.3547459   -2.4787749 
C     6.8643468   -0.7142008   -1.6432055 
C     8.0023732   -1.4370637   -1.4365490 
C     9.1680605   -1.0831251   -2.0581504 
C     9.2029632   -0.0031031   -2.8896350 
C     8.0634524    0.6943722   -3.0800165 
H     5.9411235   -0.9924461   -1.1434905 
H     7.9831447   -2.2974086   -0.7719016 
H    10.0715140   -1.6627373   -1.8861442 
H    10.1203868    0.2947279   -3.3858380 
N     7.8883093    1.8495684   -3.8875420 
C     6.4977932    2.1302795   -3.6664488 
H     8.5819469    2.3520126   -4.4875650 
H     5.9672800    2.9953482   -4.0645767 
