48
Energy =
C     7.7799985    1.3228237    0.1087764 
C     6.7165393    1.9789475    0.6378217 
C     8.1769192    0.1319624    0.6293281 
C     7.5092154   -0.3915814    1.6813667 
C     6.4453813    0.2595793    2.2152066 
C     6.0281093    1.4413700    1.6853992 
H     6.4215671    2.9338535    0.2035592 
H     7.8378195   -1.3385900    2.0936779 
H     5.9375710   -0.1770529    3.0681921 
H     8.3114131    1.7509955   -0.7342707 
C     4.8273664    2.1639948    2.2675101 
C     3.4403695    1.5158917    1.9468100 
H     4.8232767    3.2231223    1.9166751 
H     4.9705509    2.2507998    3.3658278 
C     3.3424352    0.8500561    0.5661083 
O     9.2668990   -0.5714407    0.1027682 
H     9.7346059   -0.0923961   -0.6589470 
O     3.8769099   -0.4219760    0.3758208 
N     3.0490248    0.5759474    3.0092396 
H     2.6793610    2.3304322    1.9466820 
H     3.6640946   -0.2715611    2.9850036 
H     3.1351629    1.0142302    3.9556328 
N     2.7875289    1.5335288   -0.5770164 
C     3.8319496    1.8091813   -1.5974885 
H     2.3189033    2.4152987   -0.2636055 
C     3.8881178    3.2872393   -1.9782794 
O     3.6169580    3.7025945   -3.2801472 
O     4.2152007    4.2433847   -1.0107921 
H     4.3215144    3.8520824   -0.0843673 
C     3.5833718    0.8774588   -2.8019012 
H     4.8534632    1.6046421   -1.2095052 
C     4.8083743    0.7711256   -3.6855993 
H     2.7065378    1.2409781   -3.3843426 
H     3.3125392   -0.1383154   -2.4359007 
C     5.8996800    0.0257612   -3.4496438 
C     6.1699409   -0.8193508   -2.4219090 
C     7.3816233   -1.4437430   -2.3979483 
C     8.2965793   -1.2148236   -3.3880980 
C     8.0043881   -0.3596822   -4.4092062 
C     6.7968338    0.2430509   -4.4123183 
H     5.4509474   -0.9963058   -1.6273881 
H     7.6258919   -2.1174758   -1.5787136 
H     9.2623090   -1.7132469   -3.3563118 
H     8.7214910   -0.1609727   -5.1987451 
N     6.3094927    1.1842938   -5.3572716 
C     5.0183725    1.4853810   -4.8055873 
H     6.7664620    1.5555276   -6.2219286 
H     4.3296666    2.2313500   -5.2048762 
