48
Energy =
C    -2.1347936   -1.8127295    2.5817187 
C    -0.9219228   -1.3193196    2.2243661 
C    -2.8814924   -2.5085345    1.6828778 
C    -2.4091038   -2.7043513    0.4309274 
C    -1.1972324   -2.2137326    0.0683889 
C    -0.4434520   -1.5219355    0.9662238 
H    -0.3373739   -0.7608831    2.9517535 
H    -3.0160929   -3.2568499   -0.2776138 
H    -0.8397036   -2.3737781   -0.9445792 
H    -2.5066133   -1.6478433    3.5872381 
C     0.8990711   -0.9563177    0.5628628 
C     0.8147643    0.5417304    0.1935702 
H     1.3242911   -1.5297497   -0.2868446 
H     1.6165310   -1.0922601    1.4046454 
C     2.2048976    1.1195396   -0.0124556 
O    -4.1352615   -3.0300971    2.0179172 
H    -4.4188600   -2.8394498    2.9728648 
O     3.0451801    1.2494463    1.0885419 
N    -0.0564080    0.7485175   -0.9785078 
H     0.4051857    1.1113595    1.0618849 
H     0.1608061    0.0425363   -1.7187658 
H    -1.0552837    0.5983998   -0.6999048 
N     2.6876856    1.5139395   -1.3056088 
C     4.0864498    1.1824475   -1.6399003 
H     2.0166519    1.9136543   -2.0006430 
C     4.9073249    2.4550222   -1.8188509 
O     5.5618244    2.7023102   -3.0208285 
O     5.0585181    3.3712453   -0.7803872 
H     4.5023694    3.1128890    0.0246681 
C     4.1174145    0.2899000   -2.9010341 
H     4.5901038    0.6442958   -0.8022921 
C     3.4210985   -1.0355306   -2.6816536 
H     5.1743525    0.0868215   -3.1888631 
H     3.6747675    0.8436046   -3.7561826 
C     2.2577959   -1.4449162   -3.2165449 
C     1.4052201   -0.8030967   -4.0580762 
C     0.2690559   -1.4494320   -4.4476329 
C     0.0049213   -2.7138378   -4.0002140 
C     0.8755673   -3.3406791   -3.1599171 
C     1.9920208   -2.6809473   -2.7874092 
H     1.6019726    0.2036691   -4.4119911 
H    -0.4308428   -0.9553919   -5.1181248 
H    -0.9024731   -3.2222054   -4.3178355 
H     0.6810330   -4.3439884   -2.7956419 
N     3.0100366   -3.1473359   -1.9138571 
C     3.8969031   -2.0215759   -1.9001290 
H     3.0867031   -4.0621403   -1.4117017 
H     4.8288175   -1.9808601   -1.3398015 
