48
Energy =
C     1.5640291    1.4155215   -5.5978930 
C     0.8254003    2.0602501   -4.6597456 
C     2.8371511    1.8157520   -5.8595393 
C     3.3620781    2.8616346   -5.1811248 
C     2.6282039    3.5088748   -4.2411518 
C     1.3533751    3.1112341   -3.9748489 
H    -0.1889112    1.7257206   -4.4566123 
H     4.3804260    3.1699370   -5.3946709 
H     3.0732932    4.3384744   -3.6951081 
H     1.1355015    0.5766416   -6.1359136 
C     0.5462402    3.7960568   -2.8939290 
C     0.5956502    3.0155103   -1.5605402 
H    -0.5088873    3.8907121   -3.2327503 
H     0.9131512    4.8355736   -2.7313859 
C     2.0097902    2.9055288   -1.0108539 
O     3.6261713    1.1690537   -6.8155105 
H     3.1629232    0.3955868   -7.2799636 
O     2.8078610    4.0438287   -0.9591703 
N    -0.2956480    3.6509190   -0.5785664 
H     0.2399384    1.9760906   -1.7333342 
H     0.0246594    4.6319478   -0.3889768 
H    -1.2709254    3.7008897   -0.9558953 
N     2.3799258    1.7589711   -0.2318484 
C     3.6029509    1.0088596   -0.5827272 
H     1.7590818    1.4686119    0.5573748 
C     4.8777076    1.8589767   -0.5177826 
O     5.6425976    1.8338034    0.6436739 
O     5.3456850    2.6017902   -1.6042866 
H     4.6580779    2.6542975   -2.3366891 
C     3.4229197    0.2638141   -1.9297025 
H     3.7620947    0.2439638    0.2100967 
C     2.4920901   -0.9206567   -1.7946048 
H     4.4066112   -0.1027866   -2.3012969 
H     3.0360057    0.9549939   -2.7071647 
C     2.7791723   -2.1066249   -1.2348188 
C     3.9357718   -2.5487289   -0.6770865 
C     3.9682598   -3.8149237   -0.1707970 
C     2.8580103   -4.6114631   -0.2306795 
C     1.7086101   -4.1466837   -0.7981569 
C     1.7015381   -2.8905045   -1.2914310 
H     4.8190403   -1.9181145   -0.6314042 
H     4.8819513   -4.1927727    0.2823468 
H     2.8917141   -5.6195786    0.1750861 
H     0.8195693   -4.7655561   -0.8546715 
N     0.6180286   -2.2200540   -1.9194414 
C     1.2157466   -0.9504726   -2.2139686 
H    -0.3496977   -2.5649427   -2.1146679 
H     0.7069641   -0.1366048   -2.7187757 
