48
Energy =
C    -1.1890146   -4.4075314   -3.5607996 
C    -0.9337316   -3.0794083   -3.6737490 
C    -0.8461998   -5.2572866   -4.5653192 
C    -0.2482724   -4.7717521   -5.6761753 
C     0.0110911   -3.4456552   -5.7934800 
C    -0.3284254   -2.5883898   -4.7905347 
H    -1.2033709   -2.4148435   -2.8570413 
H     0.0219332   -5.4592186   -6.4696577 
H     0.4949471   -3.0759130   -6.6929001 
H    -1.6635804   -4.7875861   -2.6626471 
C    -0.0399995   -1.1051697   -4.9183197 
C     1.3461900   -0.6775731   -4.3755795 
H    -0.8301948   -0.5237107   -4.3918215 
H    -0.1171452   -0.8018868   -5.9855337 
C     1.4757934   -0.8544835   -2.8662840 
O    -1.0979075   -6.6305719   -4.4830722 
H    -1.5300809   -6.9163116   -3.6111446 
O     1.5739189   -2.1278497   -2.3165296 
N     2.4439543   -1.3454573   -5.0990192 
H     1.4351883    0.4142897   -4.5627836 
H     2.4435645   -2.3699677   -4.8722983 
H     2.3037382   -1.2492555   -6.1324276 
N     1.2673128    0.2479716   -1.9730293 
C     2.2432249    1.3575145   -1.8698000 
H     0.4023814    0.2303162   -1.3882653 
C     1.7359682    2.6154267   -2.5730214 
O     0.7633762    2.5273206   -3.5615318 
O     2.2577013    3.8725956   -2.2666858 
H     2.9289562    3.8369654   -1.5151510 
C     3.6715813    0.9741924   -2.3511091 
H     2.3054085    1.6325902   -0.7946602 
C     4.3404173   -0.0320423   -1.4374089 
H     4.3133896    1.8814656   -2.3887330 
H     3.6523744    0.5885134   -3.3955742 
C     4.8566195    0.2069080   -0.2203250 
C     4.9192612    1.3643536    0.4877954 
C     5.5097014    1.3413939    1.7172475 
C     6.0264476    0.1765098    2.2135438 
C     5.9578286   -0.9720106    1.4822609 
C     5.3678555   -0.9237597    0.2696500 
H     4.5159686    2.2917278    0.0941270 
H     5.5712134    2.2541344    2.3054508 
H     6.4959226    0.1655974    3.1943664 
H     6.3654398   -1.9043495    1.8589544 
N     5.2048315   -1.9946883   -0.6476799 
C     4.5333600   -1.3317184   -1.7277156 
H     5.5049985   -2.9939261   -0.5700677 
H     4.2187876   -1.8232653   -2.6472453 
