48
Energy =
C     0.9050632    6.8133662   -5.2437662 
C     1.8183687    5.9498959   -4.7297397 
C    -0.2915050    6.3531828   -5.6970735 
C    -0.5656914    5.0304470   -5.6353007 
C     0.3430392    4.1628465   -5.1229089 
C     1.5409566    4.6183203   -4.6656314 
H     2.7730756    6.3325273   -4.3758599 
H    -1.5220591    4.6755684   -6.0031604 
H     0.1063997    3.1024999   -5.0850269 
H     1.1333072    7.8726745   -5.2937368 
C     2.5472323    3.6520344   -4.0826384 
C     2.1400664    3.1139068   -2.6896659 
H     3.5679196    4.0996684   -4.0354171 
H     2.6630954    2.7970702   -4.7874298 
C     3.1359916    2.0730806   -2.1986260 
O    -1.2545485    7.2164806   -6.2289587 
H    -0.9698688    8.1894810   -6.2527907 
O     3.6279882    2.1267966   -0.8948669 
N     2.0041192    4.2160671   -1.7225477 
H     1.1676301    2.5768733   -2.7722826 
H     2.9213039    4.7115581   -1.6160595 
H     1.2849235    4.9042447   -2.0428114 
N     3.3801153    0.8982214   -2.9850536 
C     4.8244112    0.5590830   -3.0200992 
H     2.8672391    0.1374938   -2.4848731 
C     5.6911025    1.6429795   -3.6572764 
O     5.3087328    2.6009537   -4.5888796 
O     5.7149951    2.9883601   -3.2933866 
H     5.7516433    3.0605039   -2.2860610 
C     4.9878173   -0.7678058   -3.7909690 
H     5.2128620    0.4245470   -1.9825271 
C     6.4017474   -1.3046446   -3.7167800 
H     4.6825529   -0.6237428   -4.8509795 
H     4.2954827   -1.5314846   -3.3747815 
C     7.4044748   -1.0688832   -4.5785415 
C     7.4221502   -0.3260917   -5.7157615 
C     8.5892304   -0.2405037   -6.4157967 
C     9.7087172   -0.8902631   -5.9753727 
C     9.6687647   -1.6278575   -4.8295819 
C     8.5023825   -1.6975838   -4.1540238 
H     6.5377592    0.2041412   -6.0619823 
H     8.6295206    0.3549318   -7.3250816 
H    10.6353159   -0.8128195   -6.5381991 
H    10.5493279   -2.1440258   -4.4636194 
N     8.2534415   -2.3951568   -2.9411251 
C     6.8709490   -2.0827767   -2.7254212 
H     8.9048900   -2.9772694   -2.3666451 
H     6.2891286   -2.4236975   -1.8725433 
