48
Energy =
C     1.1254336    6.6106465    0.6851533 
C     0.3157641    5.5569325    0.3965911 
C     2.4792311    6.4550465    0.6863928 
C     3.0131303    5.2457904    0.3997079 
C     2.1997362    4.2002255    0.1150706 
C     0.8558061    4.3446303    0.0960910 
H    -0.7624683    5.6923956    0.4115461 
H     4.0907558    5.1284219    0.3999396 
H     2.5530118    3.1155431   -0.1710280 
H     0.6878729    7.5751964    0.9191794 
C    -0.0172785    3.1279385   -0.1702708 
C     0.4964927    2.2012845   -1.3171881 
H    -1.0447752    3.4677614   -0.4285004 
H    -0.1013033    2.5404069    0.7704207 
C     1.7980013    1.4422346   -0.9871889 
O     3.3401800    7.5172335    0.9789785 
H     2.8631122    8.3899629    1.1774341 
O     2.8977914    2.1048778   -0.4339048 
N    -0.5794086    1.2629726   -1.6828602 
H     0.7454383    2.8274076   -2.2092280 
H    -0.9511251    0.7814261   -0.8296886 
H    -1.3728145    1.7857823   -2.1251032 
N     2.0266598    0.1545971   -1.5659047 
C     3.0926557    0.0607107   -2.5802478 
H     1.4652907   -0.6529269   -1.2180104 
C     2.7604040    0.9060564   -3.8109347 
O     2.0734480    0.3417871   -4.8811794 
O     3.1023651    2.2596150   -3.8760331 
H     3.5782456    2.5705160   -3.0400964 
C     3.3295906   -1.4209340   -2.9534212 
H     4.0393210    0.4658680   -2.1563205 
C     3.8722095   -2.2160019   -1.7859420 
H     4.0482803   -1.4919762   -3.8000635 
H     2.3756681   -1.8716560   -3.3120031 
C     5.1316729   -2.2035110   -1.3219550 
C     6.2177925   -1.5225582   -1.7698501 
C     7.4010727   -1.6848993   -1.1110022 
C     7.4802621   -2.5163083   -0.0279353 
C     6.3764274   -3.1910552    0.4025659 
C     5.2174979   -3.0137199   -0.2659099 
H     6.1565734   -0.8635951   -2.6305896 
H     8.2857164   -1.1502917   -1.4484557 
H     8.4266751   -2.6398346    0.4923362 
H     6.4218865   -3.8539643    1.2598121 
N     3.9620416   -3.6159097    0.0159140 
C     3.1456408   -3.0433618   -1.0137735 
H     3.7066234   -4.2935388    0.7700459 
H     2.0861433   -3.2506312   -1.1421890 
