48
Energy =
C     0.7623207   -1.5057768    4.7126275 
C     1.0815682   -0.4329541    3.9432348 
C    -0.5408021   -1.8105618    4.9523198 
C    -1.5155753   -1.0383741    4.4218458 
C    -1.2013581    0.0343199    3.6521538 
C     0.1020978    0.3435003    3.4046445 
H     2.1272565   -0.1970012    3.7591078 
H    -2.5511630   -1.2907689    4.6220158 
H    -2.0005890    0.6413492    3.2354853 
H     1.5516696   -2.1191656    5.1347099 
C     0.4517359    1.5378763    2.5358284 
C     0.6430138    1.2048229    1.0305574 
H     1.3739019    2.0294407    2.9202858 
H    -0.3458218    2.3076529    2.6269610 
C     1.9707733    0.5371869    0.6985251 
O    -0.9039177   -2.9086813    5.7382517 
H    -0.1155545   -3.4328930    6.1015114 
O     2.9587386    0.3568392    1.6636618 
N    -0.4921022    0.4306962    0.5006847 
H     0.6803593    2.1761125    0.4846058 
H    -0.5214462   -0.5140928    0.9510064 
H    -1.3870977    0.9244515    0.7234555 
N     2.3312198    0.3285844   -0.6692122 
C     3.4959404    1.0874707   -1.1632653 
H     1.7938400   -0.3708923   -1.2292640 
C     3.1773591    2.5833483   -1.1996401 
O     2.7136281    3.1693949   -2.3726746 
O     3.3161719    3.3849779   -0.0655192 
H     3.5932127    2.8450206    0.7442257 
C     3.8999985    0.5603994   -2.5601657 
H     4.3638188    0.9849405   -0.4744870 
C     4.7459336   -0.7088769   -2.6563117 
H     4.4768926    1.3640694   -3.0750242 
H     2.9802199    0.4243193   -3.1726784 
C     5.0247463   -1.6986662   -1.7657927 
C     4.6755711   -1.8740551   -0.4597863 
C     5.1080752   -2.9880599    0.1974333 
C     5.8780394   -3.9129255   -0.4428443 
C     6.2221907   -3.7302364   -1.7449548 
C     5.7847197   -2.6206443   -2.3760341 
H     4.0764138   -1.1704244    0.0875323 
H     4.8379062   -3.1386672    1.2407955 
H     6.2183546   -4.7983053    0.0890661 
H     6.8339751   -4.4566004   -2.2698427 
N     6.0402040   -2.2718913   -3.7241552 
C     5.3329651   -1.0358951   -3.8244817 
H     6.5954038   -2.7824206   -4.4494105 
H     5.2698498   -0.4474508   -4.7385099 
