48
Energy =
C    -0.8798629    4.3296699    0.7615983 
C     0.1183682    4.8606910    0.0109930 
C    -2.0997609    4.0943281    0.2090532 
C    -2.3119493    4.3901079   -1.0927976 
C    -1.3185812    4.9216039   -1.8475933 
C    -0.0955802    5.1650992   -1.2997083 
H     1.0912416    5.0311001    0.4668140 
H    -3.2862775    4.1916358   -1.5246767 
H    -1.5065013    5.1429431   -2.8944812 
H    -0.6979402    4.0897126    1.8037680 
C     1.0231264    5.7407821   -2.1470621 
C     1.8233856    4.6510950   -2.8942714 
H     1.7178131    6.3291655   -1.5052273 
H     0.6048629    6.4594358   -2.8844941 
C     2.5460018    3.7295771   -1.9205064 
O    -3.1499237    3.5497875    0.9548953 
H    -2.9087617    3.3473281    1.9190665 
O     3.2865054    4.3011102   -0.8889077 
N     0.9225411    3.9185991   -3.8014621 
H     2.6327902    5.1413932   -3.4896946 
H     0.5575351    4.5816166   -4.5244819 
H     1.4887485    3.2221488   -4.3462093 
N     2.8478984    2.3816227   -2.2966265 
C     4.2222618    2.1170567   -2.7586079 
H     2.1079077    1.6535833   -2.1791855 
C     4.5631984    2.9614409   -3.9870889 
O     4.2359456    2.5083256   -5.2595574 
O     5.1366213    4.2262838   -3.8637967 
H     5.2848609    4.4781818   -2.8967884 
C     4.3754038    0.6059760   -3.0299222 
H     4.9369230    2.4012186   -1.9526405 
C     5.8081938    0.2387549   -3.3494831 
H     3.7116992    0.3123345   -3.8751397 
H     4.0317843    0.0283264   -2.1447912 
C     6.7825326   -0.0362269   -2.4687657 
C     6.7410310   -0.0863453   -1.1123113 
C     7.8904407   -0.3812053   -0.4398043 
C     9.0511019   -0.6147149   -1.1245039 
C     9.0697973   -0.5532454   -2.4864131 
C     7.9192992   -0.2630361   -3.1292356 
H     5.8223621    0.1066905   -0.5659368 
H     7.8844921   -0.4270675    0.6466260 
H     9.9637930   -0.8457215   -0.5809391 
H     9.9834618   -0.7282309   -3.0443625 
N     7.7284145   -0.1311393   -4.5306492 
C     6.3342045    0.2057664   -4.5869498 
H     8.4153464   -0.2532594   -5.3097799 
H     5.7890243    0.4502948   -5.4993837 
