48
Energy =
C     0.8011734   -3.3088088   -7.4294307 
C     1.3778337   -2.8194584   -6.3025479 
C     1.1126375   -2.7785108   -8.6421731 
C     2.0003058   -1.7611094   -8.7187268 
C     2.5800040   -1.2673023   -7.5952071 
C     2.2732239   -1.7967939   -6.3789753 
H     1.1189536   -3.2533663   -5.3392665 
H     2.2396756   -1.3478147   -9.6927296 
H     3.2894768   -0.4482121   -7.6798912 
H     0.0901171   -4.1249651   -7.3582898 
C     2.9003104   -1.2418240   -5.1199365 
C     1.9353901   -0.3079194   -4.3491173 
H     3.8485164   -0.7108014   -5.3548187 
H     3.1950642   -2.0958131   -4.4654258 
C     2.4754626    0.0087778   -2.9551379 
O     0.5355991   -3.2576136   -9.8223246 
H    -0.1152664   -4.0230328   -9.6830801 
O     2.6819873   -1.0484824   -2.0764965 
N     1.6471904    0.9036979   -5.1379818 
H     0.9799292   -0.8504462   -4.1515312 
H     2.5374604    1.3591786   -5.4555675 
H     1.1064563    0.6495124   -5.9975759 
N     2.6073953    1.3514565   -2.4511338 
C     4.0001440    1.8748183   -2.3078377 
H     1.9725363    1.9973398   -2.9738516 
C     4.1257932    3.3016030   -2.8485544 
O     4.1677728    4.3665618   -1.9541176 
O     4.1689652    3.5731002   -4.2234442 
H     4.1580093    2.7435597   -4.7990815 
C     5.1138024    0.9410925   -2.8701519 
H     4.1897461    1.9661336   -1.2153878 
C     6.4956902    1.4978098   -2.6069753 
H     4.9836974    0.7941201   -3.9616953 
H     5.0478719   -0.0638995   -2.3992064 
C     7.2276713    1.3405803   -1.4933565 
C     6.9525413    0.6420495   -0.3616703 
C     7.8722181    0.6529595    0.6456085 
C     9.0371329    1.3568089    0.5101921 
C     9.2888176    2.0553235   -0.6334626 
C     8.3653218    2.0260937   -1.6170205 
H     6.0242728    0.0889857   -0.2478873 
H     7.6753530    0.1026711    1.5626943 
H     9.7630099    1.3641337    1.3194340 
H    10.2033909    2.6256740   -0.7543729 
N     8.4218845    2.6957229   -2.8687703 
C     7.1659577    2.3080650   -3.4449649 
H     9.1789111    3.2997749   -3.2637604 
H     6.7811256    2.6664079   -4.4010317 
