48
Energy =
C     6.7061955    3.2282803    2.7771576 
C     5.8675498    3.2292071    1.7093880 
C     6.2823389    3.7005747    3.9793943 
C     5.0211186    4.1713481    4.1044385 
C     4.1784493    4.1739143    3.0408869 
C     4.5967074    3.6983447    1.8356919 
H     6.2166240    2.8437865    0.7521910 
H     4.6957494    4.5460581    5.0676122 
H     3.1698341    4.5577108    3.1638941 
H     7.7149681    2.8472262    2.6670804 
C     3.6629404    3.6994126    0.6440125 
C     2.8261867    2.3988195    0.4866662 
H     4.2528528    3.8896245   -0.2863616 
H     2.9756360    4.5690316    0.7144761 
C     3.6592921    1.1705621    0.1410118 
O     7.1215084    3.7148070    5.0992999 
H     8.0458608    3.3385942    4.9218332 
O     4.5277590    0.6027283    1.0703371 
N     1.9823983    2.1593224    1.6681295 
H     2.1537111    2.5488595   -0.3901015 
H     2.5907703    1.9122460    2.4862349 
H     1.4617807    3.0312388    1.9199637 
N     3.4836706    0.5168185   -1.1274637 
C     4.6776226    0.7110488   -1.9845724 
H     3.3884232   -0.4944693   -0.8769212 
C     4.8647746    2.1924442   -2.2805390 
O     5.9626115    2.8486334   -1.7498580 
O     3.8956686    2.9563253   -2.9196763 
H     3.0677034    2.4170090   -3.1182030 
C     4.4865774   -0.1161370   -3.2830672 
H     5.5825243    0.3564851   -1.4373574 
C     5.6774986   -0.4871792   -4.1718280 
H     3.7342095    0.3889784   -3.9267291 
H     4.0118979   -1.0815156   -2.9985235 
C     6.9936537   -0.1383296   -4.1728756 
C     7.7230388    0.6742795   -3.3591640 
C     9.0545548    0.8425135   -3.6069418 
C     9.6479905    0.2028889   -4.6537187 
C     8.9146538   -0.6071472   -5.4611925 
C     7.5995617   -0.7571181   -5.1988327 
H     7.2971002    1.2016608   -2.5308937 
H     9.6460607    1.4986927   -2.9695579 
H    10.7091187    0.3448796   -4.8471287 
H     9.3699199   -1.1210989   -6.3013866 
N     6.6903989   -1.5530084   -5.9349542 
C     5.4814192   -1.3204400   -5.2140897 
H     6.8614342   -2.1516930   -6.7757747 
H     4.5232303   -1.7600768   -5.4860460 
