48
 energy: -8.810809913558 gnorm: 0.000367937165 xtb: 6.6.0 (2ccbbd7)
C            0.70108020635351        4.20659892387704        0.88694707946237
C            0.09197864990219        2.98348312747652        0.60456748854997
C            2.02277014875584        4.47759057487476        0.46299076307625
C            2.66607582895642        3.53917444810491       -0.28595511478426
C            2.07131710208067        2.25673709914123       -0.72033706183411
C            0.70721881851095        2.01570333211003       -0.12523774861971
H           -0.89139491815143        2.78643208764666        0.99570718172395
H            3.86072153811887        3.58462263667804       -0.58493074301997
H            1.80456117046167        2.42487390639428       -1.97268411218297
H            0.18313919815118        4.94363910336454        1.47325444796208
C            0.05514374662516        0.68135996735420       -0.33201312710378
C            1.03460264684765       -0.35932085753119       -0.90166364010137
H           -0.81462277332275        0.79252825096467       -0.98856853684908
H           -0.32877316215149        0.31474842927850        0.62490851957487
C            2.38378037051266       -0.19240985623527       -0.24929290305429
O            2.66426689402224        5.65073986594972        0.81081783377405
H            2.07511328061932        6.20889568952575        1.36279993838044
O            2.87333154807870       -1.07349303503455        0.39551916673629
N            0.58018089560644       -1.73631941441086       -0.73736472731633
H            1.15437597418488       -0.18041807910150       -1.98163163467515
H            0.93784614945017       -2.08493233163076        0.14802535267030
H           -0.43133585566383       -1.79355417627293       -0.72568520661224
N            3.05102024639991        1.08094942685150       -0.42548932961358
C            4.29571500516995        0.96910310416225       -1.32128700694311
H            3.45067102775619        1.39953990008966        0.48393926976834
C            4.78939278058796        2.28744130386398       -1.84963376556186
O            4.88654169401636        3.35762652737675       -0.99405921525697
O            5.07799821284135        2.37676049672888       -3.20406222195638
H            4.16256428260531        2.52353909735795       -3.82744399482533
C            4.08717479589673       -0.02388095218433       -2.47191745354742
H            5.09427574472595        0.56286359340109       -0.68082224031274
C            3.25552449982496        0.50275834425325       -3.58305169825388
H            3.65248304998724       -0.95305249554374       -2.09021680731828
H            5.06355926087653       -0.29529793116996       -2.88895879112501
C            2.81236079217695       -0.22612051502188       -4.67311517140465
C            2.75382924054529       -1.62582725938418       -4.89886013505452
C            2.25029712998846       -2.08275685431311       -6.08585671392264
C            1.80462901502047       -1.19808481832626       -7.07948590683568
C            1.86944756218937        0.16815416208731       -6.90693439515298
C            2.38407766053603        0.67283707163116       -5.71762693700210
H            3.08834162790384       -2.30433142080354       -4.13467222034079
H            2.19303062367434       -3.14392885931756       -6.26302411118230
H            1.41297886226892       -1.59603882296780       -8.00073115711030
H            1.54960763844186        0.84595738958222       -7.67784325944844
N            2.62442644570500        1.97197416281956       -5.31660453121421
C            3.07418279626248        1.94544867418754       -3.93396653445975
H            2.06486952530999        2.77524281187325       -5.61524831160407
H            3.53304769104814        3.02393788617802       -3.54889200907234
