48
 energy: -9.289981063959 gnorm: 0.000719968243 xtb: 6.6.0 (2ccbbd7)
C            0.78839111205498        6.72425317923243       -4.89739322507318
C            0.65652432205636        5.77362418671383       -3.91271876792524
C            2.04108153818497        7.02237413236180       -5.43501787077193
C            3.15031013913677        6.33181009098223       -4.94732616698054
C            3.01067289369014        5.38394039917251       -3.96315252507979
C            1.76382690302839        5.09118618426709       -3.42954418759569
H           -0.31520679227908        5.55128582475446       -3.50625609404636
H            4.11609021183183        6.55683534474458       -5.36371571656348
H            3.87289343068052        4.84220900509369       -3.60829168279286
H           -0.07558136133646        7.24938382692538       -5.26377870130236
C            1.62593883683823        4.03806519348317       -2.37422475328895
C            1.97954670743882        2.63957779377817       -2.88704090506084
H            0.60643789598893        4.02370359510521       -1.97863656143276
H            2.27216311063909        4.29473437779536       -1.52845679110893
C            2.02769069346145        1.64906179945382       -1.74619155550361
O            2.20605801251996        7.96960984326444       -6.42761712047101
H            1.33863539872066        8.36430214164498       -6.66418181175264
O            0.97952205825171        1.13059415799457       -1.41828584946091
N            1.03191950130199        2.15527494730837       -3.87676883181637
H            2.96037669201992        2.68635261851253       -3.37759923452622
H            0.21616499638635        1.81262275787578       -3.37725812211640
H            0.74158695058345        2.90570849929012       -4.49112886795908
N            3.21302812413144        1.35772004889132       -1.09567866543189
C            4.54160885801822        1.53854141722203       -1.69858718787303
H            3.18462578168187        0.63218910560422       -0.38219878306459
C            4.77067395058487        3.00811759568741       -1.98711380702733
O            5.17186743773936        3.35105201302816       -3.07829883045650
O            4.46373377758381        3.84831397726450       -0.96919811032587
H            4.13881057631669        3.33186845485213       -0.19484909862962
C            4.71724839743352        0.65926275363736       -2.93946996101141
H            5.29103713475205        1.23485652746205       -0.95276971523775
C            4.43421584514577       -0.78340015951849       -2.68777413584398
H            5.72994036278480        0.78450572199270       -3.33442445462392
H            4.05270223035222        1.00977747030153       -3.73251640570664
C            5.35109614883467       -1.86994289961757       -2.80985038820039
C            6.70984877885365       -1.94276430084491       -3.16244355793181
C            7.31336043441157       -3.16940087152261       -3.19616678077051
C            6.60081021749835       -4.33951056706232       -2.88712416747961
C            5.27783843868390       -4.29287033170595       -2.54223232993454
C            4.64025287742473       -3.04651062087347       -2.50248431446627
H            7.25326894265987       -1.04542697467302       -3.39908280723447
H            8.35408758985028       -3.24220984586679       -3.46532765023619
H            7.10704102066671       -5.28990413118381       -2.92396802894269
H            4.72393583342580       -5.18355217683618       -2.30560607605213
N            3.33921894180233       -2.68132682266939       -2.20411675373541
C            3.22459456656814       -1.31977574748243       -2.31998190833330
H            2.59412076806665       -3.33059552129267       -1.94517509517658
H            2.31988594485657       -0.76127197187505       -2.13471232088483
