48
Energy =
C    -2.2320363    4.7403281   -0.8844125 
C    -1.6708817    3.9697637   -1.8502895 
C    -1.4604305    5.5859972   -0.1500029 
C    -0.1310942    5.6538058   -0.3877738 
C     0.4342253    4.8884009   -1.3537587 
C    -0.3323878    4.0384913   -2.0917479 
H    -2.2992624    3.2958102   -2.4257576 
H     0.4766151    6.3258740    0.2071020 
H     1.5056007    4.9542055   -1.5244307 
H    -3.2989051    4.6776442   -0.6998773 
C     0.2995550    3.1703520   -3.1612275 
C     0.8443740    1.8226130   -2.6241850 
H     1.1277163    3.7323449   -3.6484746 
H    -0.4362023    2.9731887   -3.9718636 
C     1.9619286    2.0023895   -1.6039354 
O    -2.0084330    6.3957210    0.8510152 
H    -3.0077098    6.2779379    0.9766909 
O     1.6604039    2.2347231   -0.2639311 
N    -0.2424416    0.9762975   -2.1039761 
H     1.3111797    1.2885468   -3.4829794 
H    -0.6317039    1.4035090   -1.2290033 
H    -1.0193513    0.9224761   -2.8023928 
N     3.3036175    2.2282080   -2.0556015 
C     4.3941619    1.6666803   -1.2350412 
H     3.4716565    2.7316723   -2.9572234 
C     5.7486104    2.2700003   -1.5951756 
O     5.9908001    2.7269850   -2.8853826 
O     6.8000891    2.2893649   -0.6791580 
H     6.5339707    1.9276844    0.2244685 
C     4.4113379    0.1214453   -1.3359371 
H     4.2237675    1.9529188   -0.1712651 
C     4.3466309   -0.3865075   -2.7649513 
H     3.5653991   -0.2796271   -0.7398700 
H     5.3307077   -0.2816245   -0.8553967 
C     3.3186698   -1.0230096   -3.3554967 
C     2.1031978   -1.3766210   -2.8591138 
C     1.2241015   -2.0130341   -3.6844181 
C     1.5674484   -2.2905686   -4.9778266 
C     2.7927061   -1.9321976   -5.4544295 
C     3.6448431   -1.3013965   -4.6197018 
H     1.8138053   -1.1541830   -1.8370934 
H     0.2435081   -2.2978265   -3.3102594 
H     0.8610203   -2.7991526   -5.6290188 
H     3.0817060   -2.1448832   -6.4781345 
N     4.9541146   -0.8440399   -4.9211454 
C     5.3388483   -0.2645813   -3.6664799 
H     5.4934844   -0.9152458   -5.8148351 
H     6.2969806    0.2220622   -3.4811192 
