48
Energy =
C     2.5772409    3.4786939    5.3024648 
C     2.4282840    3.5005895    3.9538780 
C     2.0217771    2.4770530    6.0353907 
C     1.3208622    1.5025439    5.4123955 
C     1.1688306    1.5190228    4.0638969 
C     1.7187476    2.5221380    3.3261705 
H     2.8834365    4.3050914    3.3822679 
H     0.8844727    0.7082828    6.0082847 
H     0.6050396    0.7245435    3.5809847 
H     3.1432994    4.2632692    5.7927862 
C     1.5659944    2.5285073    1.8213977 
C     2.5647227    1.5676295    1.1364119 
H     1.6835664    3.5592500    1.4202953 
H     0.5240755    2.2236463    1.5665934 
C     2.2183505    1.3829190   -0.3341782 
O     2.1573535    2.4242883    7.4263752 
H     2.6935372    3.1909548    7.8179119 
O     1.2137162    0.4832937   -0.6670196 
N     3.9533329    2.0293526    1.3231916 
H     2.4515283    0.5473736    1.5784740 
H     4.0311284    3.0624390    1.1630831 
H     4.2429242    1.8575153    2.3158171 
N     2.6663924    2.3041987   -1.3410677 
C     3.9866107    1.9037734   -1.8867470 
H     2.6899047    3.2580877   -0.9152425 
C     4.8043724    3.0956291   -2.3811007 
O     4.1936759    4.3209786   -2.6165586 
O     6.1739710    2.9789446   -2.6239360 
H     6.5294080    2.0619932   -2.3975319 
C     3.7733769    0.8651695   -3.0120131 
H     4.6210490    1.4395476   -1.0953084 
C     2.8754359    1.3876389   -4.1161249 
H     3.3050337   -0.0461534   -2.5760086 
H     4.7481566    0.5381835   -3.4331604 
C     3.2487063    2.0411518   -5.2291063 
C     4.4875809    2.3850910   -5.6670339 
C     4.5942770    3.0634722   -6.8455449 
C     3.4747378    3.3835507   -7.5623432 
C     2.2410853    3.0291032   -7.1034987 
C     2.1612221    2.3591129   -5.9347450 
H     5.3788103    2.1440000   -5.0964539 
H     5.5748000    3.3586593   -7.2114956 
H     3.5679054    3.9290572   -8.4980261 
H     1.3422275    3.2806895   -7.6559644 
N     0.9812767    1.9113677   -5.2830717 
C     1.5331247    1.3007210   -4.1082924 
H    -0.0173873    1.9964831   -5.5813581 
H     0.9444122    0.8583666   -3.3054510 
