48
Energy =
C     4.4877259    5.3528919    4.0855981 
C     4.6012556    4.6638891    2.9224035 
C     3.2619668    5.7204473    4.5449652 
C     2.1571170    5.3948366    3.8365538 
C     2.2645355    4.7054388    2.6718551 
C     3.4897956    4.3393145    2.2056814 
H     5.5883324    4.3718868    2.5704528 
H     1.1867165    5.6938844    4.2180969 
H     1.3660170    4.4483753    2.1169061 
H     5.3804363    5.6068747    4.6470169 
C     3.6116564    3.5544873    0.9188298 
C     3.2983319    2.0511378    1.1211194 
H     4.6338758    3.6693278    0.4887073 
H     2.9213637    3.9880257    0.1607593 
C     3.2077808    1.3240655   -0.2098219 
O     3.1079502    6.4298358    5.7399721 
H     3.9827134    6.6393213    6.2092574 
O     1.9720142    0.8449405   -0.6289917 
N     4.2965202    1.4211730    2.0020503 
H     2.2885751    1.9412138    1.5822886 
H     5.2618075    1.7134720    1.7165894 
H     4.1603250    1.7628497    2.9822045 
N     4.2493229    1.4554691   -1.1829347 
C     5.4430043    0.6105009   -1.0267867 
H     4.1167492    2.1041352   -1.9900608 
C     6.6760461    1.4801575   -0.8250982 
O     6.9137244    2.5390354   -1.6933507 
O     7.6047014    1.2214937    0.1843155 
H     7.3521367    0.4212619    0.7441173 
C     5.6083868   -0.2688877   -2.2773651 
H     5.3369429   -0.0543931   -0.1396001 
C     4.4618789   -1.2438717   -2.4239747 
H     6.5661729   -0.8314741   -2.2228582 
H     5.6746945    0.3808782   -3.1792663 
C     4.2967521   -2.3948615   -1.7543082 
C     5.0934788   -2.9831505   -0.8259080 
C     4.6885382   -4.1661831   -0.2805286 
C     3.5059214   -4.7355084   -0.6659413 
C     2.7212056   -4.1245349   -1.5988933 
C     3.1451229   -2.9563092   -2.1250332 
H     6.0295164   -2.5285845   -0.5153274 
H     5.3074479   -4.6565084    0.4671511 
H     3.1875715   -5.6766908   -0.2240860 
H     1.7773545   -4.5582924   -1.9119874 
N     2.4786242   -2.1577730   -3.0921634 
C     3.3950220   -1.0622255   -3.2218351 
H     1.5734566   -2.3284981   -3.5875009 
H     3.2251776   -0.1896169   -3.8484025 
