48
Energy =
C    -4.3218297    0.5435691   -2.7812300 
C    -3.1008306    1.0784113   -3.0355566 
C    -4.7688713    0.4386696   -1.5011779 
C    -3.9896179    0.8707368   -0.4837923 
C    -2.7676642    1.4065343   -0.7321549 
C    -2.3176281    1.5172446   -2.0120585 
H    -2.7542971    1.1520352   -4.0639777 
H    -4.3574575    0.7801640    0.5322520 
H    -2.1550951    1.7422677    0.0999085 
H    -4.9383092    0.1984177   -3.6042511 
C    -0.9480836    2.0910867   -2.2972107 
C     0.0986998    0.9825624   -2.5489229 
H    -0.6174059    2.7546764   -1.4690599 
H    -1.0135437    2.7465343   -3.1977924 
C     1.3842769    1.5698847   -3.0990864 
O    -6.0205561   -0.1103609   -1.2038213 
H    -6.5456579   -0.4012079   -2.0212696 
O     1.5905146    1.5374989   -4.4723215 
N     0.3385421    0.1900070   -1.3270579 
H    -0.2710757    0.3101128   -3.3613896 
H     0.4367391    0.8158850   -0.4942526 
H    -0.4950084   -0.4201134   -1.1495473 
N     2.3191940    2.2419132   -2.2367174 
C     3.7301575    2.4037149   -2.6436293 
H     1.9952531    2.5515213   -1.2960950 
C     3.9163851    3.3678110   -3.8191116 
O     2.8770802    4.1986537   -4.2177823 
O     5.1709624    3.5640193   -4.4052724 
H     5.9186591    3.1801714   -3.8505726 
C     4.4456594    1.0304293   -2.7773489 
H     4.2417153    2.9247297   -1.8050458 
C     4.0736919    0.2163756   -4.0067602 
H     4.2457098    0.4472278   -1.8550874 
H     5.5455160    1.1820931   -2.7852547 
C     3.3200046   -0.8991185   -4.0435979 
C     2.6704148   -1.5518754   -3.0431620 
C     1.9549233   -2.6703085   -3.3536199 
C     1.9004318   -3.1195284   -4.6431515 
C     2.5592077   -2.4513637   -5.6312506 
C     3.2593563   -1.3463450   -5.3003926 
H     2.6896933   -1.1932426   -2.0195551 
H     1.4173173   -3.2014999   -2.5718355 
H     1.3238447   -4.0094167   -4.8835733 
H     2.5208571   -2.7905314   -6.6611176 
N     4.0041438   -0.5141418   -6.1766760 
C     4.4916144    0.4781050   -5.2614460 
H     4.1738470   -0.6156216   -7.2042805 
H     5.0923498    1.3362900   -5.5563423 
