48
Energy =
C     6.3548556   -1.3573305    4.3480936 
C     5.3939118   -0.5593919    3.8178122 
C     7.6334993   -0.9073525    4.4570115 
C     7.9415174    0.3396504    4.0335925 
C     6.9844099    1.1421921    3.5026782 
C     5.7025881    0.6970183    3.3937925 
H     4.3764282   -0.9329853    3.7348418 
H     8.9653267    0.6856507    4.1245898 
H     7.2530585    2.1394681    3.1634582 
H     6.0980953   -2.3561295    4.6837080 
C     4.6325847    1.5794741    2.7900411 
C     4.2884978    1.1829251    1.3332711 
H     4.9292255    2.6518965    2.8203870 
H     3.7169244    1.5128735    3.4203020 
C     3.0236766    1.8819557    0.8458262 
O     8.6477983   -1.7044267    4.9977640 
H     8.3362443   -2.6226539    5.2945852 
O     2.4690675    2.9098451    1.6042052 
N     5.4226017    1.4769955    0.4428917 
H     4.0621327    0.0923134    1.2912958 
H     5.6259509    2.5061123    0.4458724 
H     6.2804851    0.9680166    0.7562591 
N     2.1989551    1.2655299   -0.1554135 
C     2.7564184    1.4878244   -1.5073150 
H     1.2671269    1.7327038   -0.0828284 
C     2.6942469    2.9568897   -1.9639403 
O     3.8744063    3.6278636   -2.2662260 
O     1.4829357    3.6282671   -2.1633271 
H     0.6878606    3.0876534   -1.8658723 
C     2.0358827    0.5612617   -2.5049961 
H     3.8247158    1.1809103   -1.5254837 
C     2.3985973   -0.8893856   -2.2650020 
H     2.3363460    0.8367229   -3.5411648 
H     0.9367234    0.7002892   -2.4448111 
C     1.8224141   -1.7403888   -1.3995074 
C     0.7738371   -1.5531226   -0.5574443 
C     0.3851223   -2.5924005    0.2377726 
C     1.0443952   -3.7891114    0.1797974 
C     2.0968989   -3.9532546   -0.6708530 
C     2.4608597   -2.9113041   -1.4472014 
H     0.2600868   -0.5986606   -0.5046792 
H    -0.4499244   -2.4688053    0.9252113 
H     0.7317503   -4.6133963    0.8171441 
H     2.6347084   -4.8941635   -0.7254151 
N     3.5307812   -2.8702739   -2.3799852 
C     3.4273536   -1.5222164   -2.8568276 
H     4.2088442   -3.6203237   -2.6493287 
H     4.1097198   -1.0692812   -3.5738653 
