48
Energy =
C     0.5530873   -2.7542472    0.3572074 
C    -0.0918731   -1.6474241   -0.0855346 
C     1.8925855   -2.7257227    0.5777372 
C     2.5839424   -1.5895735    0.3451166 
C     1.9627239   -0.4750744   -0.1515723 
C     0.5941397   -0.4993136   -0.3307112 
H    -1.1667381   -1.6862250   -0.2420075 
H     3.6456085   -1.5747459    0.5577687 
H     2.6575749    0.6407941   -0.2223230 
H    -0.0099704   -3.6615406    0.5453795 
C    -0.1671854    0.7185685   -0.8362613 
C     0.7270053    1.8600222   -1.3623604 
H    -0.8148135    1.1085680   -0.0215906 
H    -0.8365092    0.3905794   -1.6633790 
C     1.8903195    1.3043497   -2.1701476 
O     2.5830407   -3.8476485    1.0518019 
H     1.9899853   -4.6543632    1.2116891 
O     1.7764350    1.1951968   -3.5556675 
N    -0.0973597    2.7959066   -2.1347166 
H     1.1745977    2.3984929   -0.4951693 
H    -0.4466302    2.4976974   -3.0766796 
H    -0.2983011    3.7400513   -1.7310600 
N     2.8449644    0.4456475   -1.4782816 
C     4.2640228    0.9194820   -1.5621486 
H     2.8770365   -0.4302379   -2.1091095 
C     4.4764789    2.2849520   -0.8800842 
O     4.2789054    3.4598805   -1.5978037 
O     4.7936753    2.3783039    0.4756292 
H     4.8841303    1.4722811    0.9118940 
C     4.7857197    0.9289309   -3.0282411 
H     4.8958606    0.1920635   -1.0016712 
C     6.2839573    1.1320897   -3.0807925 
H     4.2806920    1.7304464   -3.6149838 
H     4.5390224   -0.0239107   -3.5450493 
C     7.2261718    0.1975615   -2.8815061 
C     7.0945105   -1.1287758   -2.6220149 
C     8.2263437   -1.8693608   -2.4454697 
C     9.4576462   -1.2794844   -2.5278162 
C     9.5645179    0.0550315   -2.7866206 
C     8.4302841    0.7655098   -2.9596897 
H     6.1171669   -1.5977691   -2.5530903 
H     8.1492910   -2.9340145   -2.2364010 
H    10.3550998   -1.8761001   -2.3839600 
H    10.5330419    0.5393565   -2.8504185 
N     8.3188359    2.1575963   -3.2197107 
C     6.8941760    2.3142756   -3.2772411 
H     9.0731601    2.8723034   -3.3384119 
H     6.3820969    3.2638401   -3.4300416 
