48
Energy =
C    -0.5019930   -2.3854487   -4.0416659 
C    -0.4853137   -1.9226406   -2.7669347 
C    -1.0097968   -1.6170133   -5.0405233 
C    -1.5136573   -0.3961524   -4.7540936 
C    -1.5127128    0.0668570   -3.4781419 
C    -0.9885215   -0.6898778   -2.4751571 
H    -0.0639742   -2.5470934   -1.9859315 
H    -1.9192713    0.2054475   -5.5590119 
H    -1.9285042    1.0475914   -3.2685612 
H    -0.0959843   -3.3667718   -4.2603422 
C    -0.9494903   -0.1648760   -1.0517224 
C     0.2255691    0.8151280   -0.7788633 
H    -0.8756803   -1.0163206   -0.3411157 
H    -1.9181730    0.3246372   -0.8132967 
C     1.5575341    0.3070463   -1.3257463 
O    -1.0205676   -2.0576014   -6.3676369 
H    -0.7068942   -3.0146397   -6.4776955 
O     1.9881485    0.7122205   -2.5868209 
N    -0.0900720    2.1701534   -1.2647542 
H     0.3662148    0.8857740    0.3231148 
H    -0.0537415    2.1899833   -2.3110881 
H    -1.0453675    2.4634866   -0.9586156 
N     2.1881681   -0.8359313   -0.7228210 
C     3.6359966   -0.7926352   -0.4365452 
H     1.6051262   -1.6559233   -0.4505437 
C     4.0497027    0.3919380    0.4431532 
O     3.1242926    1.3545905    0.8265906 
O     5.3515209    0.4982074    0.9395922 
H     5.9212651   -0.3028488    0.7156506 
C     4.4481822   -0.8750956   -1.7536524 
H     3.8826286   -1.6878554    0.1750380 
C     4.1777332   -2.1717579   -2.4958253 
H     5.5357686   -0.8331065   -1.5323355 
H     4.2398371    0.0153436   -2.3823023 
C     3.5507012   -2.3462264   -3.6775100 
C     3.0048050   -1.4420104   -4.5332611 
C     2.4283085   -1.8969490   -5.6845194 
C     2.4170254   -3.2329939   -5.9691576 
C     2.9742502   -4.1233986   -5.1028120 
C     3.5296441   -3.6510520   -3.9674002 
H     3.0130344   -0.3796793   -4.3230408 
H     1.9588357   -1.1945497   -6.3740321 
H     1.9557890   -3.5871515   -6.8885241 
H     2.9739793   -5.1878002   -5.3145980 
N     4.1655630   -4.4120829   -2.9522962 
C     4.5576799   -3.3802909   -2.0407858 
H     4.3083486   -5.4472016   -2.8900831 
H     5.0933319   -3.5587292   -1.1107316 
