48
Energy =
C     1.3610624    3.5322488    1.7625884 
C     0.6945559    2.5531163    1.1000592 
C     1.7162832    4.6753066    1.1169980 
C     1.4012366    4.8305667   -0.1889676 
C     0.7318422    3.8565266   -0.8550402 
C     0.3769991    2.7077519   -0.2148973 
H     0.4176751    1.6452196    1.6299120 
H     1.6948304    5.7438809   -0.6948685 
H     0.4937097    3.9969626   -1.9074289 
H     1.6087522    3.3987805    2.8102484 
C    -0.3588898    1.6135861   -0.9607866 
C     0.5641137    0.6366375   -1.7296301 
H    -1.0635147    2.0807682   -1.6861916 
H    -0.9967459    1.0355201   -0.2569021 
C     1.4301105    1.3251084   -2.7810247 
O     2.4034225    5.7027488    1.7714299 
H     2.6074080    5.5074670    2.7454046 
O     0.8971218    1.5254513   -4.0506942 
N     1.3416466   -0.2151753   -0.8107291 
H    -0.1035960   -0.0249489   -2.3288171 
H     1.8553389    0.3626995   -0.1073069 
H     0.6867380   -0.8304146   -0.2731783 
N     2.6924746    1.9400706   -2.4712375 
C     3.9032945    1.3554841   -3.1142426 
H     2.8167528    1.9567530   -1.4355803 
C     4.7199514    2.4651909   -3.7571456 
O     6.0985144    2.4731038   -3.5881294 
O     4.1387704    3.4161331   -4.5952469 
H     3.1312060    3.3160109   -4.6181342 
C     3.6458791    0.2368922   -4.1688663 
H     4.5660344    0.9380604   -2.3215712 
C     3.2029291   -1.0776016   -3.5523541 
H     4.5952645    0.0290601   -4.7133339 
H     2.9445450    0.6078130   -4.9448497 
C     2.0782802   -1.7727486   -3.8116714 
C     1.0399551   -1.4914935   -4.6436181 
C     0.0079405   -2.3811358   -4.7205369 
C     0.0299122   -3.5295549   -3.9808639 
C     1.0832909   -3.7970593   -3.1596173 
C     2.0901190   -2.9010718   -3.0966287 
H     1.0076783   -0.5767632   -5.2284835 
H    -0.8390170   -2.1747798   -5.3717736 
H    -0.7958528   -4.2343123   -4.0482837 
H     1.1181946   -4.7067571   -2.5690561 
N     3.2742099   -3.0027441   -2.3205244 
C     3.9411614   -1.7864823   -2.6774151 
H     3.5808178   -3.7648630   -1.6723127 
H     4.9201897   -1.4953982   -2.3022049 
