48
 energy: -9.123768599216 gnorm: 0.000994062605 xtb: 6.6.0 (2ccbbd7)
C           -3.91740480910690        2.38052127041742       -1.61644898265139
C           -2.56847220780821        2.31653504412065       -1.87548100036647
C           -4.76086894627515        1.32945337612828       -1.97840416621092
C           -4.19939984111129        0.21801217390953       -2.60555346143239
C           -2.84987418408896        0.16078089801494       -2.86015617563612
C           -2.01571676955347        1.20981377343533       -2.50432815653407
H           -1.92570746433801        3.13051453649493       -1.58678959866734
H           -4.84915558305826       -0.59244792130696       -2.88316124682572
H           -2.42648012220791       -0.70580135039018       -3.33813104500610
H           -4.33640864449186        3.24334047212682       -1.13078212403063
C           -0.54005791636190        1.11581311866412       -2.73383856636542
C            0.17034446944329        0.24284242296623       -1.69337488548926
H           -0.09416067743074        2.11459846610728       -2.71706844590895
H           -0.34554321848559        0.72495628683565       -3.73819840380331
C            1.61776753520446        0.10758329297784       -2.04671355898550
O           -6.12017607309869        1.36081992528895       -1.72925501189386
H           -6.36191537165357        2.20684729634741       -1.29429706010133
O            1.95155311850836       -0.01770835698628       -3.40285382379902
N            0.02616811584857        0.80541275176040       -0.34748084127472
H           -0.28110018858705       -0.76197825164403       -1.71424483796586
H           -0.93339569120998        1.08518681509920       -0.19522128071415
H            0.23441180102611        0.11005528417602        0.35797593612667
N            2.57105078800538        0.16469692631689       -1.02733829202795
C            3.79851748483600        0.95317357470789       -1.16159997754569
H            2.23007813650415        0.19064633335994       -0.06427872077064
C            3.50969614847520        2.44262030765025       -1.19348624747064
O            4.44798372878683        3.17026709265565       -1.44016620705538
O            2.25219506905443        2.88591219929562       -0.93595480133069
H            1.59118982111742        2.15848882072711       -0.75590315517911
C            4.60884242873096        0.52053994149319       -2.38425228179761
H            4.40978370593245        0.75491273068444       -0.26789003223624
C            4.67783929009208       -0.96403522968914       -2.46242729092767
H            5.60982557153858        0.96353469893970       -2.36742861149973
H            4.11285235154851        0.90418648458371       -3.28149719130501
C            3.65087091820379       -1.74054690881308       -2.98902867779407
C            2.44022313786220       -1.32217378839273       -3.77408669618025
C            1.38751901613381       -2.39897700978692       -3.75861403285088
C            1.64424047134960       -3.66528109445018       -3.35024093128933
C            2.88655986049354       -4.04570948986597       -2.80634672955147
C            3.86305936438542       -3.07121931420577       -2.59523918379921
H            2.76699969488530       -1.19344965345799       -4.81874513371350
H            0.40557654322227       -2.13492190851037       -4.10989444065967
H            0.86443080382450       -4.40624536612227       -3.41574146321146
H            3.06080256220079       -5.05226291765724       -2.47300414276372
N            5.05596809748911       -3.09966680312916       -1.87566655067433
C            5.53264439605535       -1.82575579529988       -1.77722198963922
H            5.42602940207372       -3.93236953574826       -1.41377502734726
H            6.39667641213224       -1.52932897133325       -1.20430897003540
