48
 energy: -9.073605803249 gnorm: 0.000694959659 xtb: 6.6.0 (2ccbbd7)
C            2.85550639556014       -1.58851905800884        1.60678832651208
C            2.30242044529510       -0.34983347936025        1.38561710741686
C            2.04172577626663       -2.71385244201582        1.74002115253614
C            0.66083191972681       -2.54578761483756        1.63731823505571
C            0.11648957411194       -1.30339230329315        1.41377212441445
C            0.92772316277511       -0.18558652165544        1.29006703118598
H            2.93750354955582        0.51239484448406        1.27709756106507
H            0.03411655035716       -3.41421652808910        1.73494958840311
H           -0.95077355811045       -1.18985886639878        1.33301313172691
H            3.92246356658621       -1.70218155632964        1.67711451536686
C            0.34482812417795        1.16602952619330        1.01567789615300
C            0.14585514466019        1.45195830716553       -0.47998667533463
H            1.00057524733488        1.92828008993407        1.44935245345659
H           -0.61096239634225        1.26195022750172        1.54028586297788
C            1.43463461592356        1.26478939445204       -1.24459742077677
O            2.56361913467549       -3.97245676696672        1.97073787215940
H            3.54381032304794       -3.92844679183717        2.00388867778307
O            1.61874061443696        0.21047288295386       -1.81568102929669
N           -0.87004861396315        0.60231583716396       -1.08239651517244
H           -0.18504882821467        2.49423099423314       -0.61477166589470
H           -0.44437908805280       -0.29675812215816       -1.29369091410355
H           -1.65186515024980        0.45447646592173       -0.45497765147046
N            2.34635672485910        2.29548932238464       -1.25223869764295
C            3.61642661792357        2.23487495258613       -1.98801024818605
H            2.08479975820274        3.21751279472970       -0.89895936500239
C            3.38738093045699        2.51312678057929       -3.44493689188131
O            4.24842885666873        3.34706281907802       -4.09757592070053
O            2.33222681887078        1.87026705849177       -4.04298036469378
H            1.94759758570428        1.25211294045479       -3.37390700949898
C            4.33581515539979        0.89150454867725       -1.78114936973998
H            4.26083427098650        3.03189819510188       -1.58775831264603
C            5.83127311794351        0.95004916852115       -1.80529973834029
H            3.97855414717789        0.17363204275541       -2.52669799979316
H            4.02079644304791        0.47990128626909       -0.81702141438839
C            6.69044976026726        1.82833783050523       -2.53831512976859
C            6.46615738779647        2.87765030198344       -3.44117888015359
C            7.52883833910248        3.54176535796954       -3.97645621957625
C            8.84609647364276        3.19214415669450       -3.63895694359252
C            9.10042875077122        2.16826025773642       -2.76868087949237
C            8.01706474148387        1.47565327531008       -2.21243791687891
H            5.31751405296579        3.15285315822079       -3.77908586345154
H            7.35276986210943        4.34331824065534       -4.67444412791942
H            9.66618918551297        3.73657492060438       -4.07699432506247
H           10.10446783633390        1.88758048337037       -2.50568335709207
N            7.96245409441101        0.41694095033462       -1.32574001071418
C            6.64688657032490        0.10377571165017       -1.09465320429375
H            8.77878459809043       -0.05494402217249       -0.93247317719839
H            6.30908113456896       -0.68635181431453       -0.44366556194585
