48
Energy =
C    -0.6117004   -2.1654360   -2.4116010 
C     0.6866907   -1.8768280   -2.1432149 
C    -1.3836087   -2.7765911   -1.4742550 
C    -0.8501952   -3.0921864   -0.2721248 
C     0.4472365   -2.8033815    0.0026155 
C     1.2259708   -2.1940712   -0.9331068 
H     1.2876360   -1.3860335   -2.9026520 
H    -1.4766571   -3.5768924    0.4687955 
H     0.8538563   -3.0617513    0.9765286 
H    -1.0317085   -1.9043118   -3.3767355 
C     2.6731538   -1.8653197   -0.6252121 
C     2.8821197   -0.4175500   -0.1118207 
H     3.2896452   -2.0249485   -1.5366067 
H     3.0726679   -2.5807861    0.1270259 
C     2.5133494    0.6315753   -1.1584956 
O    -2.7236109   -3.0929842   -1.7212245 
H    -3.0573217   -2.7932347   -2.6305138 
O     1.4215751    1.4708794   -0.9594384 
N     2.1780866   -0.2060873    1.1639795 
H     3.9686965   -0.2777933    0.0777138 
H     1.1421079   -0.1873627    0.9998593 
H     2.3788564   -0.9904924    1.8260952 
N     3.1018969    0.5659358   -2.4676571 
C     4.4062587    1.2699826   -2.5188315 
H     2.4248701    1.0435704   -3.1125553 
C     4.2709941    2.7940120   -2.6532687 
O     3.4044223    3.3319941   -3.5965371 
O     5.0819804    3.6671149   -1.9278873 
H     5.6679267    3.1912015   -1.2600980 
C     5.2561468    0.6775639   -3.6654125 
H     4.9804329    1.0753951   -1.5857894 
C     4.5075186    0.6003836   -4.9825852 
H     5.6012992   -0.3370291   -3.3730830 
H     6.1808950    1.2826770   -3.8035012 
C     3.7827615   -0.4361300   -5.4365882 
C     3.5594919   -1.6546511   -4.8793668 
C     2.7501185   -2.5321449   -5.5387925 
C     2.1812113   -2.1829302   -6.7322539 
C     2.4183039   -0.9538478   -7.2726885 
C     3.2248872   -0.1047331   -6.6021449 
H     4.0038399   -1.9303118   -3.9291512 
H     2.5544209   -3.5130466   -5.1121271 
H     1.5350805   -2.8866009   -7.2515148 
H     1.9696788   -0.6573660   -8.2149463 
N     3.5750463    1.2196845   -6.9753208 
C     4.3996587    1.6086346   -5.8662829 
H     3.3115848    1.7617870   -7.8306876 
H     4.8174131    2.6059025   -5.7241410 
