48
Energy =
C     2.3912339    4.0010792    3.2101902 
C     2.4123817    2.7382989    2.7113804 
C     1.2270907    4.7026953    3.2448432 
C     0.0919259    4.1364395    2.7764514 
C     0.1081581    2.8757477    2.2741880 
C     1.2693075    2.1656652    2.2436114 
H     3.3526276    2.1914191    2.6803007 
H    -0.8291419    4.7079764    2.8058165 
H    -0.8133749    2.4408882    1.8959900 
H     3.3081089    4.4497326    3.5773069 
C     1.2860780    0.7666106    1.6636500 
C     1.4149211    0.7867747    0.1198887 
H     0.3473978    0.2499520    1.9602710 
H     2.1129025    0.1644388    2.1035635 
C     2.8252388    1.1205615   -0.3600920 
O     1.1697615    6.0039964    3.7545936 
H     2.0653956    6.3644553    4.0652547 
O     3.8990314    1.1428996    0.5293223 
N     0.9719198   -0.5025396   -0.4329933 
H     0.7546698    1.5889532   -0.2835267 
H     1.5619745   -1.2725566   -0.0332255 
H    -0.0206904   -0.6866973   -0.1558653 
N     3.0420169    1.5378258   -1.7163284 
C     4.3664964    1.2780982   -2.3131305 
H     2.2543898    1.9471640   -2.2678304 
C     5.0423949    2.5900633   -2.6885855 
O     5.3351111    2.8759084   -4.0180125 
O     5.4042238    3.5162613   -1.7120601 
H     5.0813577    3.2258752   -0.7975771 
C     4.1985021    0.3303602   -3.5195780 
H     5.0641804    0.8062284   -1.5809386 
C     3.8275657   -1.0653502   -3.0733247 
H     5.1386554    0.2881654   -4.1137743 
H     3.4216095    0.7352956   -4.2058659 
C     4.6708074   -2.0323072   -2.6792768 
C     6.0269300   -2.0285885   -2.6068373 
C     6.6543107   -3.1521254   -2.1545197 
C     5.9257197   -4.2481403   -1.7825871 
C     4.5646612   -4.2267606   -1.8592882 
C     3.9674155   -3.1046496   -2.3122775 
H     6.6081327   -1.1573988   -2.8946682 
H     7.7394620   -3.1750231   -2.0861496 
H     6.4333678   -5.1387293   -1.4206119 
H     3.9717699   -5.0852129   -1.5626817 
N     2.5736036   -2.8700218   -2.4518479 
C     2.5702946   -1.5199534   -2.9388944 
H     1.7695659   -3.5082713   -2.2530822 
H     1.6740830   -0.9259279   -3.1118495 
