48
Energy =
C    -0.6987346    3.8411791    2.9764378 
C    -0.0625250    3.3240298    1.8949310 
C    -0.7639044    3.1317240    4.1348928 
C    -0.1900491    1.9088098    4.2025697 
C     0.4472664    1.3869915    3.1240041 
C     0.5171191    2.0943111    1.9631763 
H    -0.0173609    3.9002830    0.9740727 
H    -0.2479520    1.3530450    5.1317026 
H     0.8996814    0.4018621    3.1971089 
H    -1.1553961    4.8226487    2.9116831 
C     1.2065429    1.5114483    0.7498971 
C     0.1988915    0.9315231   -0.2706380 
H     1.9407434    0.7303439    1.0508388 
H     1.8052257    2.3153001    0.2641753 
C     0.8908966    0.5283369   -1.5590476 
O    -1.4150440    3.6339582    5.2668002 
H    -1.8079074    4.5596183    5.1368789 
O     0.5943499    1.1933123   -2.7458059 
N    -0.5445961   -0.2026602    0.3083792 
H    -0.5191376    1.7318712   -0.5668134 
H     0.1198649   -0.8572481    0.7842372 
H    -1.1983950    0.1563504    1.0433013 
N     1.7780476   -0.5981055   -1.6058448 
C     3.1752271   -0.3919613   -2.0345264 
H     1.4213021   -1.5355212   -1.3143617 
C     3.8498467    0.8036641   -1.3593276 
O     4.7353976    0.5706033   -0.3151507 
O     3.6368389    2.1222710   -1.7643500 
H     2.8858488    2.2031774   -2.4341562 
C     3.2623824   -0.3411472   -3.5762010 
H     3.7686219   -1.2696347   -1.6888560 
C     3.0154374   -1.7046490   -4.1856426 
H     4.2754220    0.0078375   -3.8791821 
H     2.5469039    0.4025018   -3.9873191 
C     1.8335414   -2.2482311   -4.5284967 
C     0.5792844   -1.7325086   -4.4650589 
C    -0.4655131   -2.5092353   -4.8748560 
C    -0.2433510   -3.7759943   -5.3380349 
C     1.0238359   -4.2743338   -5.3934701 
C     2.0396780   -3.4867109   -4.9827706 
H     0.3978183   -0.7296714   -4.0956979 
H    -1.4811568   -2.1200881   -4.8298553 
H    -1.0809434   -4.3905563   -5.6611655 
H     1.2170854   -5.2793704   -5.7551341 
N     3.4197490   -3.8187138   -4.9497134 
C     3.9801982   -2.6139575   -4.4136961 
H     3.8970878   -4.7043643   -5.2395262 
H     5.0388982   -2.4708477   -4.2034727 
