48
 energy: -9.284521257043 gnorm: 0.000961188837 xtb: 6.6.0 (2ccbbd7)
C           -0.55824885286511       -2.15810529350016       -1.84570885412312
C            0.22648553550966       -2.03754864571400       -0.72289634178450
C           -1.41735649699449       -1.12671879106772       -2.22715668017178
C           -1.45526577938213        0.02595136019438       -1.44340331403782
C           -0.66210401111736        0.14085769905990       -0.32751240075030
C            0.17975043998453       -0.89228457841398        0.05750419375757
H            0.88900024322094       -2.83698310985027       -0.43969388160374
H           -2.10856056199182        0.82595983134664       -1.74184357306744
H           -0.66273213342713        1.05172765573825        0.24699842557457
H           -0.51477638709483       -3.05028722818398       -2.44434844837875
C            1.05499210607791       -0.74531741703165        1.26463555016882
C            2.39938373987453       -0.08453239138161        0.94922048997416
H            1.21345884012935       -1.72190843946029        1.73218979883687
H            0.53768713724340       -0.13470112964867        2.01054329926439
C            2.18086803882259        1.27997469711006        0.33720907275655
O           -2.21235135824264       -1.21324599584983       -3.35393410252814
H           -2.07517338660142       -2.07866395402540       -3.79523478639325
O            1.37887797332557        2.01579201518161        0.87611006161432
N            3.23462004622752        0.06148785526450        2.13106219681169
H            2.94102632439317       -0.71877917805102        0.23711100584235
H            2.84626984810372        0.78899932952127        2.71667192974340
H            3.26032619478198       -0.79542676267297        2.66978560557625
N            2.88130777922682        1.67584344350861       -0.78368909222606
C            4.03246043233954        0.95348976483396       -1.33491137507663
H            2.85874957160846        2.66460833280929       -1.02323946410045
C            4.94379961771194        1.93729709822771       -2.03940906449865
O            6.13612928788026        1.85759345978752       -1.83762284185255
O            4.33737850107609        2.82443825827057       -2.86653727004239
H            3.38758637059674        2.59413797882741       -2.98312702695460
C            3.61142003985599       -0.17258748933392       -2.28782608889453
H            4.60326866202506        0.54901895502370       -0.48580436136108
C            2.74452171661327        0.31860605165399       -3.39330002254569
H            3.07216716474688       -0.95655682621528       -1.74988720637240
H            4.50263805183011       -0.64970754561749       -2.70723011945555
C            3.16885046641500        0.72795209074548       -4.69375299249374
C            4.41919685359950        0.72505725296516       -5.33596953300283
C            4.50974998908418        1.24885894348115       -6.59556470429064
C            3.38438566380408        1.78462359499867       -7.24287050379742
C            2.16062784892622        1.81048902562892       -6.63183356890638
C            2.04700818027915        1.28288133548782       -5.33960345020483
H            5.28529322933333        0.34545224051059       -4.82324289760681
H            5.46340304211920        1.26348291599232       -7.09686236616226
H            3.49189022334381        2.19273758835541       -8.23419418627929
H            1.29765405343113        2.23404906078860       -7.11349521686693
N            0.98785508081241        1.22444168469452       -4.45037839874925
C            1.41519933251482        0.64101429171603       -3.28575628996409
H            0.04202266392887        1.55799370832199       -4.64470109262269
H            0.80497181238669        0.49603504768117       -2.41044077349360
