48
 energy: -9.288112798683 gnorm: 0.000706090046 xtb: 6.6.0 (2ccbbd7)
C           -2.10051842384803        1.94361591577156        0.21183840176545
C           -0.75262300841884        2.20698079655581        0.25727609812497
C           -2.81761754432310        1.71371749049600        1.38693972972170
C           -2.12947059426964        1.75071879639469        2.59948659775844
C           -0.78106567188484        2.01500198154129        2.63602413595444
C           -0.07543307121084        2.25493651029780        1.46693272570904
H           -0.19861541812439        2.36834210828478       -0.65182517279650
H           -2.68075054008137        1.56219179379029        3.50349311937678
H           -0.25865023712244        2.03060924625482        3.57704314264457
H           -2.61490360787422        1.90941534908599       -0.73166012766905
C            1.39728803100692        2.51962598540086        1.49607997320394
C            2.24813641387351        1.25350835198875        1.66611312946068
H            1.62746627768597        3.23237654555770        2.29429773126803
H            1.68735066283685        3.02193166609659        0.56812700846395
C            1.84743982406657        0.16556991657403        0.68122137640224
O           -4.17483911058457        1.45417887474284        1.38018764400917
H           -4.51001860534234        1.43731994884171        0.45800871983862
O            1.01903825382987       -0.63908368531348        1.06453341605942
N            3.67612137912843        1.56412022732393        1.63255879498436
H            2.03323624690215        0.82200549183588        2.65778829247055
H            3.81424206774617        2.19586564588247        0.84626729024748
H            3.94490898197448        2.08802888144351        2.45448045290482
N            2.35763455985434        0.06950008944468       -0.59718487790167
C            3.43670348859485        0.87962646819150       -1.16301820577180
H            2.08245515142015       -0.72703165270585       -1.16815142015863
C            2.95340272427348        2.30216544079189       -1.32995606026682
O            3.64195463472049        3.19348388228353       -0.87915990051697
O            1.75561057649224        2.44588887664089       -1.94517497248084
H            1.39581402268219        1.55795906735147       -2.17910295617788
C            3.96319133498542        0.29956087472282       -2.46969399812530
H            4.27080596790118        0.88412456164196       -0.45261685801287
C            4.51525594481696       -1.08727288076774       -2.35808637296632
H            4.73492392794636        0.96174812268123       -2.87622686815298
H            3.15411768668173        0.30041153324754       -3.20573397634274
C            4.78007105253067       -1.88653498383325       -1.19571609120811
C            4.62552702210855       -1.69584195454341        0.19244936654354
C            4.97246685557091       -2.70322722723240        1.04815309149763
C            5.48188228183704       -3.92027290689715        0.57267895136613
C            5.64759550567075       -4.13581673278362       -0.76641979454883
C            5.29539687237442       -3.11566835638459       -1.65860803213011
H            4.23068523237618       -0.77653583578605        0.58311402602458
H            4.84557667429970       -2.56442129129047        2.10918107342849
H            5.74218304520381       -4.69532222852503        1.27446293423707
H            6.03461437672663       -5.06504018210010       -1.14449143254261
N            5.34864125971026       -3.06001148745757       -3.03770941403477
C            4.87973698589998       -1.83957382717085       -3.44727033741716
H            5.68301081823050       -3.81598084054590       -3.63807953115783
H            4.80732796821215       -1.52353683057543       -4.47548264477390
