48
Energy =
C     1.6245925    4.9608873    1.8326573 
C     1.4825884    3.6193187    1.6789163 
C     1.0101988    5.8157261    0.9712511 
C     0.2625081    5.3208127   -0.0419672 
C     0.1199238    3.9806385   -0.2011193 
C     0.7222230    3.1221547    0.6653189 
H     1.9948279    2.9369557    2.3576915 
H    -0.2158531    6.0116310   -0.7277157 
H    -0.4745690    3.6012601   -1.0282363 
H     2.2348110    5.3495024    2.6409443 
C     0.5941427    1.6270800    0.4737553 
C     1.7053546    1.0715920   -0.4452929 
H    -0.4017896    1.3913259    0.0383363 
H     0.6327948    1.1080030    1.4583714 
C     3.0906805    1.3309847    0.1184017 
O     1.1321860    7.2030694    1.1031878 
H     1.7253194    7.4970900    1.8716031 
O     3.3899688    0.9734167    1.4327448 
N     1.4994962   -0.3677740   -0.6642857 
H     1.6593241    1.5944161   -1.4297212 
H     1.5611516   -0.8681371    0.2556978 
H     0.5408899   -0.5334963   -1.0497681 
N     4.0006451    2.1791251   -0.5915694 
C     5.3064899    1.5032168   -0.7650189 
H     4.1148061    3.0285944    0.0063785 
C     6.4101716    2.4898765   -1.1090435 
O     6.9649678    2.3916800   -2.3766758 
O     6.9242260    3.4120183   -0.2036327 
H     6.4459994    3.3594150    0.6831087 
C     5.2008256    0.4122525   -1.8751847 
H     5.6403767    1.0200318    0.1837753 
C     4.6543841    0.9613041   -3.1872797 
H     4.5479579   -0.4105806   -1.5086274 
H     6.1983514   -0.0420322   -2.0633805 
C     5.1840144    1.9209134   -3.9916527 
C     6.4071430    2.6122789   -3.9309386 
C     6.5821724    3.6134289   -4.8563530 
C     5.6207188    3.9209184   -5.7720615 
C     4.4580640    3.2239750   -5.8092291 
C     4.2694831    2.2338517   -4.9180919 
H     7.5520302    2.4465026   -3.3251712 
H     7.5170309    4.1688497   -4.8670568 
H     5.7908598    4.7235161   -6.4852909 
H     3.6876002    3.4614337   -6.5349994 
N     3.1016997    1.4368423   -4.7921384 
C     3.4292595    0.6510571   -3.6450423 
H     2.2343483    1.4312232   -5.3755426 
H     2.7452973   -0.0465708   -3.1674724 
