48
 energy: -9.284760284935 gnorm: 0.000709090798 xtb: 6.6.0 (2ccbbd7)
C            1.72071734109142       -1.05047360913752        4.10085206878181
C            1.61707598074078       -0.38166791507107        2.90506300603885
C            0.61252073275472       -1.18069336498391        4.93754440000833
C           -0.59313351591568       -0.61429965117644        4.52580333044985
C           -0.68546920570867        0.05285970233294        3.32759306641971
C            0.41780303826207        0.17995274102104        2.49428285700408
H            2.47072046283215       -0.31036360456832        2.25567083023082
H           -1.44768017382679       -0.71026997257172        5.17139403396561
H           -1.62324994798882        0.48879172890791        3.02877718155038
H            2.65755823542502       -1.48546832067988        4.39981392587920
C            0.30691474796504        0.93157347533178        1.19958317946800
C            0.73848753223969        0.14669028491702       -0.05834142682734
H            0.89883824152661        1.85022321187093        1.26932356335828
H           -0.73127566790174        1.25993021486521        1.08010857514291
C            2.22255347887933        0.27196722121002       -0.30779208296393
O            0.67857800141057       -1.85004788893668        6.14463553212324
H            1.58826574438516       -2.18846725504488        6.29149843696683
O            3.00412199057282       -0.34091108570513        0.38721778713230
N            0.37353427910810       -1.26043757165949        0.00042953909967
H            0.23024653006767        0.57204744984460       -0.93927450339456
H            1.02984672455925       -1.73544475829479        0.60474077252342
H           -0.55158857233283       -1.37018985500691        0.39719760066905
N            2.63621578667575        1.09787071294205       -1.32733270310914
C            4.04214598452367        1.36063871599839       -1.56100283832431
H            2.00399108846115        1.74583848706388       -1.81068945260544
C            4.20330411040044        2.82393762100661       -1.91196330573692
O            3.34804336234104        3.31297764913803       -2.61749766732020
O            5.29719961606077        3.46808560253189       -1.43282712242835
H            5.85061169250265        2.87510447043845       -0.87859210477447
C            4.59689713409258        0.47043274349301       -2.67014414274961
H            4.55996184886888        1.14443459621109       -0.61608569808109
C            4.44657680690394       -0.98169617636202       -2.37009015015387
H            5.65046678534867        0.70634313172531       -2.85061413784107
H            4.07020456286761        0.70656373455820       -3.59947300787393
C            3.27211522091316       -1.76456781091837       -2.57458321299636
C            2.01708786280258       -1.47269589624826       -3.13539619025259
C            1.05942167628553       -2.44822675580204       -3.14201643135380
C            1.31378686198984       -3.71942154338053       -2.60213701756147
C            2.52795503829635       -4.02506166373726       -2.05069174470569
C            3.52297846745257       -3.03960609948918       -2.03331889463008
H            1.82268188064626       -0.49093758291116       -3.52908019390977
H            0.08883636858132       -2.23712419474668       -3.55924821031476
H            0.53485045457809       -4.46357272183295       -2.61845653641661
H            2.72828768835111       -4.99282948219718       -1.62727344430540
N            4.81172030804575       -3.03038071098327       -1.52941260780192
C            5.35233699107150       -1.78268890419824       -1.71941063313188
H            5.24360797084238       -3.80571745095434       -1.02301395483256
H            6.32950376329407       -1.47567538069598       -1.38292409022709
