48
Energy =
C     6.3129916   -1.5922366    0.8160218 
C     5.4172306   -0.9776060    1.6291963 
C     5.8880100   -2.4834803   -0.1190769 
C     4.5685083   -2.7565493   -0.2313460 
C     3.6680296   -2.1415365    0.5758036 
C     4.0880449   -1.2486806    1.5137375 
H     5.7711781   -0.2596601    2.3646705 
H     4.2418511   -3.4670755   -0.9828458 
H     2.6088597   -2.3586431    0.4562388 
H     7.3692723   -1.3638459    0.9117758 
C     3.0834071   -0.5177451    2.3777277 
C     2.7957160    0.9006488    1.8480578 
H     3.4698795   -0.4593682    3.4188159 
H     2.1249398   -1.0842553    2.4363321 
C     2.2598234    0.8642139    0.4216070 
O     6.7828764   -3.1269268   -0.9791071 
H     7.7521983   -2.8644450   -0.8349138 
O     1.1473605    0.0937986    0.1004164 
N     1.8440846    1.5548512    2.7601679 
H     3.7495936    1.4806847    1.8218941 
H     2.2930159    1.6909035    3.6968554 
H     1.6175890    2.5135285    2.4028398 
N     2.7578770    1.7830519   -0.5547609 
C     4.0470029    1.4450787   -1.1895954 
H     2.2202307    2.6616733   -0.7236533 
C     4.8160835    2.6811547   -1.6516614 
O     6.1733826    2.7676813   -1.3708089 
O     4.2187042    3.7252279   -2.3583490 
H     3.2663849    3.5131870   -2.6094790 
C     3.8327543    0.4070881   -2.3118258 
H     4.7149997    0.9685473   -0.4368826 
C     2.9219642    0.8962337   -3.4151344 
H     3.3880816   -0.5120728   -1.8716432 
H     4.8150383    0.0940130   -2.7287494 
C     3.2867865    1.4845253   -4.5653356 
C     4.5238366    1.7922423   -5.0331382 
C     4.6231427    2.4145860   -6.2427424 
C     3.4978535    2.7179814   -6.9582976 
C     2.2658650    2.4041618   -6.4659343 
C     2.1940506    1.7882157   -5.2672794 
H     5.4188060    1.5697586   -4.4589560 
H     5.6023785    2.6780997   -6.6349961 
H     3.5855846    3.2177268   -7.9195031 
H     1.3628241    2.6447490   -7.0161148 
N     1.0191429    1.3982642   -4.5711707 
C     1.5797573    0.8316542   -3.3792371 
H     0.0169922    1.5010349   -4.8506507 
H     0.9976565    0.4172882   -2.5565120 
