48
Energy =
C    -3.3896252    0.9976514    2.7551975 
C    -2.0730593    1.2987281    2.6209637 
C    -4.2323391    1.1279653    1.6957705 
C    -3.7505901    1.5589937    0.5079299 
C    -2.4351397    1.8611674    0.3677644 
C    -1.5881472    1.7354765    1.4258757 
H    -1.4113235    1.1843318    3.4758445 
H    -4.4324835    1.6579984   -0.3293915 
H    -2.0664865    2.2036699   -0.5956182 
H    -3.7663388    0.6509878    3.7114243 
C    -0.1190101    2.0570686    1.2646135 
C     0.6556096    0.9231926    0.5532681 
H     0.3528475    2.2690410    2.2510402 
H    -0.0232719    3.0004551    0.6811512 
C     2.0542290    1.3824742    0.1878388 
O    -5.5938982    0.8247962    1.7997535 
H    -5.8769999    0.5134762    2.7224771 
O     2.9067222    1.8574911    1.1798681 
N     0.7128308   -0.2826993    1.3944796 
H     0.1437891    0.6683101   -0.4035889 
H     1.1384816   -0.0474546    2.3236863 
H    -0.2542713   -0.6435841    1.5674975 
N     2.3890234    1.6160755   -1.1861850 
C     3.7404596    1.0870379   -1.5154872 
H     2.3429711    2.6541139   -1.3145541 
C     4.8007504    2.1771785   -1.7140899 
O     4.4470531    3.4131349   -2.2435802 
O     6.1554710    1.9172401   -1.4960853 
H     6.3172485    1.0104709   -1.0846314 
C     3.6225505    0.1849288   -2.7607000 
H     4.1335536    0.4436699   -0.6907560 
C     3.0848337    0.9252378   -3.9689723 
H     2.9384376   -0.6600789   -2.5225552 
H     4.6079721   -0.2713534   -2.9995055 
C     3.7937126    1.5767249   -4.9062613 
C     5.1367303    1.7357487   -5.0332218 
C     5.6072626    2.4601339   -6.0888029 
C     4.7395900    3.0072763   -6.9929769 
C     3.3953458    2.8358838   -6.8452263 
C     2.9539583    2.1163716   -5.7921889 
H     5.8293536    1.3168446   -4.3093457 
H     6.6778809    2.6115566   -6.2049137 
H     5.1226332    3.5882758   -7.8281913 
H     2.6931569    3.2690336   -7.5493393 
N     1.6036002    1.8308860   -5.4546531 
C     1.7783256    1.0623030   -4.2568710 
H     0.7253955    2.1050640   -5.9521665 
H     0.9645091    0.6657932   -3.6538563 
