48
Energy =
C     1.2346509   -0.1905971    4.4052432 
C     1.2574404    1.0865074    3.9385621 
C     1.1938167   -1.2386966    3.5351578 
C     1.1731818   -1.0012029    2.2033787 
C     1.1947705    0.2738415    1.7458147 
C     1.2509764    1.3227868    2.5985214 
H     1.2773050    1.9123061    4.6445986 
H     1.1394206   -1.8368866    1.5133342 
H     1.1980360    0.5953058    0.6132178 
H     1.2446443   -0.3715065    5.4746544 
C     1.2214491    2.7386753    2.0392989 
C     2.0967333    2.9366999    0.7620693 
H     1.5688785    3.4462115    2.8242936 
H     0.1654790    3.0042191    1.8103535 
C     1.5271454    2.2352389   -0.4944631 
O     1.1722483   -2.5632193    3.9830089 
H     1.1838164   -2.6564944    4.9926090 
O     1.1983807    0.8802486   -0.4504322 
N     2.3013013    4.3784557    0.5373623 
H     3.0889960    2.4540745    0.9354929 
H     1.3806523    4.8813031    0.5683005 
H     2.8871712    4.7760783    1.3108816 
N     1.5065646    2.8756371   -1.7796901 
C     2.8686874    3.0010855   -2.3569991 
H     1.0335940    3.7993647   -1.6613387 
C     2.9951058    4.2044086   -3.2956148 
O     3.4086105    4.0426006   -4.6110897 
O     2.8016982    5.5046691   -2.8278274 
H     2.6249596    5.5348980   -1.8347250 
C     3.2742672    1.6556140   -3.0201599 
H     3.6182839    3.2289209   -1.5650632 
C     2.3170006    1.1975045   -4.1104793 
H     3.3008710    0.8636498   -2.2391898 
H     4.3100634    1.7313015   -3.4111832 
C     2.5452463    1.1461394   -5.4370820 
C     3.6428267    1.5044227   -6.1545285 
C     3.6200495    1.3368870   -7.5082653 
C     2.5161890    0.8134421   -8.1208006 
C     1.4274053    0.4565847   -7.3836397 
C     1.4719498    0.6363148   -6.0468966 
H     4.5167414    1.9353060   -5.6779030 
H     4.4818711    1.6288834   -8.1034981 
H     2.5044775    0.6851091   -9.2002156 
H     0.5431814    0.0391896   -7.8530996 
N     0.4557702    0.3166274   -5.1097311 
C     1.0846113    0.7058409   -3.8816350 
H    -0.4908127   -0.0982590   -5.2685319 
H     0.6294123    0.5971337   -2.8994696 
