48
Energy =
C    -4.1754625   -0.4003829   -0.5971290 
C    -3.1886763    0.0323402   -1.4223439 
C    -3.9406439   -1.4176203    0.2744290 
C    -2.7183970   -1.9949460    0.3139357 
C    -1.7279161   -1.5660147   -0.5086137 
C    -1.9586167   -0.5503385   -1.3848558 
H    -3.3901034    0.8489955   -2.1109142 
H    -2.5442671   -2.8048396    1.0136050 
H    -0.7519292   -2.0413548   -0.4619775 
H    -5.1520414    0.0700731   -0.6356643 
C    -0.8494981   -0.0609083   -2.2894156 
C     0.1502168    0.8571907   -1.5473916 
H    -1.2675604    0.4736722   -3.1731030 
H    -0.3113469   -0.9451910   -2.7002969 
C     1.3736132    1.1228746   -2.4138464 
O    -4.9344619   -1.8868112    1.1395622 
H    -5.8223943   -1.4059680    1.0448384 
O     1.2316739    1.9549653   -3.5185408 
N    -0.4933183    2.1208298   -1.1514004 
H     0.5117870    0.3424234   -0.6280642 
H    -0.9129044    2.5864082   -1.9923345 
H    -1.2704661    1.9303767   -0.4765900 
N     2.5840505    0.3581998   -2.1936335 
C     3.8148637    0.4784949   -3.0217846 
H     2.5287516   -0.4103191   -1.4886065 
C     3.7016980    1.3442494   -4.2832426 
O     3.3263886    0.7658430   -5.4928691 
O     4.0282548    2.7023543   -4.2617010 
H     4.0898678    3.0572383   -3.3186564 
C     4.3238441   -0.9394776   -3.3849729 
H     4.5929289    0.9718820   -2.3998850 
C     4.8315243   -1.7006423   -2.1793518 
H     5.1481860   -0.8777785   -4.1310537 
H     3.5005251   -1.5067804   -3.8766659 
C     5.9987948   -1.5126441   -1.5443031 
C     7.0059130   -0.6425356   -1.8136281 
C     8.1027068   -0.6504891   -1.0026885 
C     8.1759776   -1.5186576    0.0516980 
C     7.1530336   -2.3851212    0.3008809 
C     6.0787138   -2.3577093   -0.5154499 
H     6.9510064    0.0437714   -2.6536620 
H     8.9238367    0.0357099   -1.1967394 
H     9.0539217   -1.5195629    0.6929810 
H     7.1958817   -3.0813422    1.1315804 
N     4.9160227   -3.1699697   -0.4336591 
C     4.1598741   -2.6801086   -1.5482603 
H     4.6771099   -3.9183950    0.2564373 
H     3.1781750   -3.0500948   -1.8337469 
