48
 energy: -8.967022235191 gnorm: 0.000734914664 xtb: 6.6.0 (2ccbbd7)
C           -3.63792995915828       -2.43643330466807       -0.93355205694003
C           -2.33811325963886       -2.19754116337368       -1.31338434698326
C           -4.12652834770696       -1.94239648826416        0.27660597615091
C           -3.26285115970304       -1.20437719939203        1.08584735890273
C           -1.96423915997108       -0.97122956909318        0.70002505432706
C           -1.48123196977871       -1.46628446423537       -0.50219310722827
H           -1.97344767413598       -2.58076783796127       -2.25112042439806
H           -3.63960332622374       -0.82185398420663        2.01757079105676
H           -1.30826932070388       -0.39672906883704        1.33135298035697
H           -4.29254146905698       -3.00715175299690       -1.56772233713808
C           -0.07850849723676       -1.17278044384055       -0.93572917041078
C            0.12370252839946        0.28289037276381       -1.34161754818318
H            0.18873221303250       -1.80999155706420       -1.78461701764134
H            0.62224158258792       -1.43968683366572       -0.13784590726238
C            1.52859035592644        0.51582122898014       -1.94995418331737
O           -5.42821262600754       -2.16250133872170        0.68629246882557
H           -5.90382483528437       -2.70027535933378        0.01633044827593
O            1.83644535877418       -0.50079031964992       -2.94578714402110
N           -0.83504404830647        0.71842054558655       -2.43064633369619
H           -0.00073607314969        0.94065126215278       -0.47117933234148
H           -1.17482043900485       -0.12082908625348       -2.93416060063531
H           -1.67436050731964        1.19085979111200       -2.03907332244326
N            2.63857758381715        0.77609708265712       -0.99859778885158
C            3.94532043623933        1.29904169383661       -1.46359039868109
H            2.28378730462711        1.40586976465649       -0.27569199789451
C            3.86620089252085        2.80580108871029       -1.62996803805879
O            3.78838161101813        3.27872616462664       -2.74308363301640
O            3.85409062990247        3.52914937541256       -0.48041100316812
H            3.93872472751219        2.95090890194308        0.30983959731014
C            4.54404011337854        0.60213605633938       -2.70200772150954
H            4.64305749296865        1.11719080878529       -0.63031122018597
C            3.71628349368859        0.67526027191980       -3.93340884795862
H            4.70867540530940       -0.45508137498392       -2.46882699059836
H            5.52733309130341        1.03355441712404       -2.91659135302084
C            2.21707999677187        0.53702264771536       -3.89316642668819
C            1.37361220454561        1.57154963908340       -3.09037752839347
C           -0.12144737516120        1.61647854209506       -3.46356010343215
C           -0.43445008966803        1.19838013990954       -4.86974860299407
C            0.47179928769384        0.65387934830037       -5.72893973912776
C            1.77465396260181        0.37501366140618       -5.32261255297610
H            1.87088135933161        2.53268932834146       -2.91165077866641
H           -0.46610865442232        2.86059586549334       -3.40271302971113
H           -1.43527645374883        1.38215731396412       -5.22073925618386
H            0.20743679022626        0.48222657024358       -6.75816184969910
N            2.95139179209548        0.29703486245426       -6.03907379450661
C            4.08296046016144        0.47740672193753       -5.21967382646819
H            2.99438939766413        0.33221147589954       -7.05774618842192
H            5.10033839845352        0.41909979298911       -5.56790361184581
