48
Energy =
C     0.9663789   -5.7670241   -3.0640599 
C     0.8804411   -4.4801219   -3.4866764 
C     2.1596984   -6.2734150   -2.6528395 
C     3.2598603   -5.4871238   -2.6674113 
C     3.1798475   -4.1996111   -3.0883787 
C     1.9883834   -3.6889120   -3.5036491 
H    -0.0814388   -4.0887511   -3.8082823 
H     4.2052757   -5.9028433   -2.3369625 
H     4.0748702   -3.5831435   -3.0915840 
H     0.0782256   -6.3895890   -3.0547125 
C     1.8974070   -2.2492753   -3.9575572 
C     1.8570441   -1.2610448   -2.7676758 
H     1.0063121   -2.0916110   -4.6073069 
H     2.7762432   -2.0250517   -4.6032122 
C     2.0748429    0.1719283   -3.2419423 
O     2.2826880   -7.5945044   -2.2100549 
H     1.4150637   -8.1191427   -2.2336578 
O     1.4008946    0.6199020   -4.3725072 
N     0.5856945   -1.3737464   -2.0357915 
H     2.6897680   -1.4985866   -2.0681969 
H    -0.2171822   -1.1984412   -2.6879219 
H     0.4776187   -2.3410760   -1.6502883 
N     2.6943180    1.1418966   -2.3780120 
C     4.1606518    1.3446147   -2.5458144 
H     2.4349673    0.9170856   -1.3901292 
C     4.4297912    2.7495057   -3.0874588 
O     3.8084976    3.1691067   -4.2574067 
O     5.3558437    3.6049487   -2.4839535 
H     5.8064959    3.1884397   -1.6838485 
C     4.8651794    0.2664636   -3.4197813 
H     4.6234653    1.2949481   -1.5346608 
C     6.3683082    0.4508825   -3.4324740 
H     4.4699036    0.2952241   -4.4611037 
H     4.6574975   -0.7456477   -3.0164186 
C     7.0969305    1.1359387   -4.3301219 
C     6.7066836    1.8028805   -5.4472719 
C     7.6591177    2.4343174   -6.1914976 
C     8.9727146    2.3903918   -5.8143609 
C     9.3417201    1.7159344   -4.6886487 
C     8.3810350    1.0992450   -3.9686567 
H     5.6639478    1.8509813   -5.7475533 
H     7.3690932    2.9821073   -7.0852924 
H     9.7245549    2.9008884   -6.4111917 
H    10.3784302    1.6765696   -4.3721221 
N     8.5508962    0.3606086   -2.7669169 
C     7.1985018   -0.0183442   -2.4842094 
H     9.4272077    0.1515766   -2.2356117 
H     6.8923872   -0.5943359   -1.6143674 
