48
Energy =
C     0.0137685    6.5122039   -0.9949017 
C     0.1677676    5.2873076   -1.5617881 
C    -1.0644737    6.7704135   -0.2092116 
C    -1.9812951    5.8007467    0.0060363 
C    -1.8301140    4.5740669   -0.5541620 
C    -0.7509929    4.3063578   -1.3417996 
H     1.0404479    5.0919424   -2.1819854 
H    -2.8372262    6.0193967    0.6353275 
H    -2.5790727    3.8099095   -0.3649675 
H     0.7569062    7.2839315   -1.1665962 
C    -0.5842997    2.9299613   -1.9637383 
C     0.2872703    1.9366623   -1.1413562 
H    -0.1664208    3.0310653   -2.9903701 
H    -1.5897237    2.4746561   -2.1064589 
C     1.7868780    2.1068555   -1.3798423 
O    -1.2545756    8.0210156    0.3865747 
H    -0.5132828    8.6870567    0.1979315 
O     2.3493248    3.3687540   -1.2580614 
N    -0.0372079    1.9779956    0.2931259 
H     0.0336395    0.9174092   -1.5097347 
H     0.2807289    2.8914290    0.7001261 
H    -1.0720109    1.9089515    0.4286756 
N     2.6139737    0.9435401   -1.6033256 
C     4.1002899    0.9456333   -1.5254824 
H     2.1287451    0.0924895   -1.9614086 
C     4.7721694    2.3177720   -1.3673282 
O     5.1993766    3.0189320   -2.4931728 
O     5.0455300    2.8493931   -0.1044710 
H     4.5019843    2.3893245    0.6109850 
C     4.6804031    0.1955261   -2.7515758 
H     4.3906702    0.3771058   -0.6152306 
C     4.3323381   -1.2783989   -2.7509166 
H     5.7908855    0.2838575   -2.7559806 
H     4.3334293    0.6892429   -3.6849430 
C     3.3936637   -1.8954387   -3.4890998 
C     2.5346422   -1.3900582   -4.4131429 
C     1.6620463   -2.2431082   -5.0222437 
C     1.6587412   -3.5725187   -4.7028169 
C     2.5278906   -4.0574316   -3.7714228 
C     3.3825625   -3.1943847   -3.1832986 
H     2.5296466   -0.3351062   -4.6678522 
H     0.9657461   -1.8641852   -5.7663963 
H     0.9604075   -4.2460434   -5.1931079 
H     2.5370554   -5.1088639   -3.5051096 
N     4.3533895   -3.4920034   -2.1901314 
C     4.9217417   -2.1959270   -1.9643592 
H     4.5870917   -4.4087520   -1.7446070 
H     5.7169276   -1.9893304   -1.2515439 
