48
 energy: -9.175267942621 gnorm: 0.000762811532 xtb: 6.6.0 (2ccbbd7)
C            0.72757542689695        5.98539982669989       -1.76839208422214
C            0.69195313933290        4.61211489947266       -1.79543243545045
C           -0.43488346810188        6.72876701545721       -1.97157328951766
C           -1.62479599730258        6.03838284326804       -2.19982176903712
C           -1.65021523041484        4.66384078176694       -2.22242485047309
C           -0.49199170166404        3.92555522737760       -2.02018266071040
H            1.59287660516524        4.05873735734127       -1.59621124924672
H           -2.52186627047800        6.61014081287614       -2.35717076399416
H           -2.57814654718753        4.14779983647465       -2.39958855756554
H            1.65470669687049        6.49729676716800       -1.58115721064406
C           -0.53024846568838        2.42538911381102       -2.04746848456743
C           -0.11212958618101        1.75521616969131       -0.72434211439351
H            0.11584918609703        2.06985671060232       -2.85669907541687
H           -1.54271383393639        2.10282398606347       -2.31162715888918
C            1.36226227042909        1.86154406643822       -0.52073220919050
O           -0.43604256446691        8.11066341121523       -1.94832631153790
H            0.47172950392077        8.44368765692860       -1.77988676425782
O            1.83942649075639        2.94584199178040        0.23078210755013
N           -0.80432393099541        2.32861001061074        0.42305119720322
H           -0.36483738306208        0.68305982143973       -0.75943907758797
H           -0.33986606025078        3.19999226226006        0.65965737365628
H           -1.76964159467081        2.53568725773741        0.19696630421608
N            2.23388551820216        0.97108009791311       -1.12876958124591
C            3.64641888955199        1.32169707988165       -1.28078398241657
H            1.89042207837802        0.45425524025720       -1.93537971415409
C            3.76208824706533        2.81762549757149       -1.44917129385722
O            4.27576008161951        3.29799236670468       -2.45535620052878
O            3.21969882097773        3.56782757904872       -0.38919671930644
H            2.96011118824272        2.88070244737088        0.50177015319908
C            4.32350586576554        0.56399404256251       -2.42781307759630
H            4.14322982707313        1.05267241031202       -0.33770996316695
C            4.40505409066760       -0.91163182580493       -2.21201854052510
H            5.33147271477192        0.96629136741848       -2.57392648399717
H            3.78498256062093        0.77312605883389       -3.35663867557772
C            5.27819904920618       -1.81552883991465       -2.88740053482393
C            6.26177711557540       -1.63542815953083       -3.87537973732764
C            6.94586096577784       -2.73062243720126       -4.32617973164660
C            6.68011157908316       -4.01373301525052       -3.81978810109612
C            5.72587397215610       -4.21308142160358       -2.85968153449125
C            5.01217915086614       -3.10516441742292       -2.38520800657947
H            6.46077340179322       -0.65110500065580       -4.26059530019918
H            7.70293345425754       -2.60946645757016       -5.08314881554825
H            7.23879187707616       -4.85479784592638       -4.19590715826235
H            5.51564610925545       -5.19169108304090       -2.46689293977640
N            4.00451014351557       -2.98693248455171       -1.44349696252551
C            3.64381096084031       -1.66550623763814       -1.35393351029479
H            3.60543184902876       -3.76419165988852       -0.91401359341484
H            2.87606456272977       -1.27797159933250       -0.70748005108973
