48
Energy =
C    -2.6081607   -1.4834482    0.8835873 
C    -1.3698128   -1.4132196    0.3339916 
C    -2.7704635   -1.3269826    2.2245717 
C    -1.6906724   -1.0987984    3.0065349 
C    -0.4495747   -1.0268304    2.4620134 
C    -0.2814824   -1.1895121    1.1213692 
H    -1.2572546   -1.5309067   -0.7399507 
H    -1.8340624   -0.9724458    4.0741698 
H     0.4057244   -0.8378522    3.1061847 
H    -3.4681739   -1.6620861    0.2476561 
C     1.0983337   -1.0912286    0.5115292 
C     1.5348043    0.3742895    0.2884880 
H     1.1400451   -1.6463077   -0.4484541 
H     1.8277991   -1.5989593    1.1837041 
C     2.9933485    0.4387278   -0.1314617 
O    -4.0328690   -1.3939915    2.8229014 
H    -4.7904589   -1.5640170    2.1706634 
O     3.9721405    0.0981468    0.7964425 
N     0.6452804    1.0498998   -0.6748587 
H     1.5049889    0.9189445    1.2626330 
H     0.4615911    0.4285667   -1.4957543 
H    -0.2804131    1.2368547   -0.2212149 
N     3.3941917    0.8201731   -1.4561493 
C     4.4986457    0.0635122   -2.0774236 
H     2.8302685    1.5320078   -1.9743945 
C     5.7039156    0.9696395   -2.3048938 
O     6.2229757    1.1353848   -3.5844905 
O     6.3379194    1.6117016   -1.2435365 
H     5.8483002    1.4565577   -0.3715892 
C     4.0045789   -0.5849724   -3.3902076 
H     4.8785123   -0.7362540   -1.3984836 
C     2.8958907   -1.5867986   -3.1519044 
H     4.8509621   -1.1108202   -3.8885408 
H     3.6869713    0.2100252   -4.0979681 
C     1.5996389   -1.4645539   -3.4861341 
C     0.9431212   -0.4413196   -4.0935592 
C    -0.3976533   -0.5681471   -4.3095651 
C    -1.0557544   -1.7026326   -3.9240723 
C    -0.3771872   -2.7183603   -3.3199887 
C     0.9482595   -2.5697171   -3.1162356 
H     1.4550344    0.4668141   -4.3948725 
H    -0.9462187    0.2388651   -4.7905788 
H    -2.1246006   -1.7955924   -4.1016234 
H    -0.8843587   -3.6251562   -3.0075152 
N     1.8273776   -3.4957399   -2.4944614 
C     3.0683901   -2.7817081   -2.5587321 
H     1.6217572   -4.4396496   -2.0923841 
H     4.0164468   -3.1632548   -2.1849320 
