48
Energy =
C     1.7608842    4.8372847    2.8203206 
C     1.6228037    3.7059584    2.0845294 
C     0.7946804    5.7936117    2.7917681 
C    -0.3020385    5.6126749    2.0209914 
C    -0.4444498    4.4838839    1.2812757 
C     0.5146200    3.5185839    1.3150499 
H     2.4084957    2.9557376    2.1096067 
H    -1.0622810    6.3861241    1.9998016 
H    -1.3276916    4.3615071    0.6597143 
H     2.6470238    4.9770880    3.4290031 
C     0.3701799    2.2726170    0.4677317 
C     0.8934072    2.4956038   -0.9677800 
H    -0.7018476    1.9794827    0.4271377 
H     0.9039331    1.4186333    0.9380556 
C     2.3785014    2.8161799   -0.9866822 
O     0.9028227    6.9687637    3.5431641 
H     1.7632387    7.0449602    4.0746010 
O     2.7673406    3.9502827   -1.3002855 
N     0.5891802    1.3164075   -1.7967337 
H     0.3894693    3.3889656   -1.4118143 
H     1.0069504    0.4575020   -1.3683911 
H    -0.4470293    1.1769164   -1.8482554 
N     3.3664121    1.8039462   -0.7356802 
C     4.5268971    1.8894918   -1.6376912 
H     3.2460733    1.0908239    0.0150227 
C     4.6346691    3.3128528   -2.2071710 
O     5.6207435    3.6344853   -3.1345657 
O     3.8297451    4.1857868   -1.8438416 
H     3.6157905    4.2784916   -0.8734987 
C     4.3421252    0.8264069   -2.7398645 
H     5.4575987    1.6986592   -1.0606542 
C     5.6293225    0.5358666   -3.4802404 
H     3.5494577    1.1628586   -3.4477293 
H     3.9624312   -0.1170320   -2.2917959 
C     6.5967108   -0.3133859   -3.1005670 
C     6.6710642   -1.1143216   -2.0063779 
C     7.7820474   -1.8889663   -1.8450135 
C     8.7914296   -1.8497715   -2.7669343 
C     8.6963625   -1.0347013   -3.8557308 
C     7.5863058   -0.2799505   -3.9944780 
H     5.8734501   -1.1418539   -1.2702332 
H     7.8669240   -2.5389638   -0.9776794 
H     9.6748896   -2.4681095   -2.6299379 
H     9.4902664   -0.9874031   -4.5933405 
N     7.2969656    0.6377689   -5.0390333 
C     6.0136351    1.1296242   -4.6240220 
H     7.8610780    0.8803931   -5.8854561 
H     5.4573496    1.9193843   -5.1292413 
