48
 energy: -9.288424740383 gnorm: 0.000568991510 xtb: 6.6.0 (2ccbbd7)
C           -1.18956159777451       -1.96823629742786       -2.85355524732265
C           -1.14310058457785       -1.20953598608466       -1.70793648842142
C           -0.09979771069703       -2.75372115336874       -3.23091885113297
C            1.03080044241945       -2.75013987610336       -2.41500372126352
C            1.06872402508991       -1.98977801399850       -1.27152840197714
C           -0.01577286554571       -1.20853522251519       -0.89900383901091
H           -1.98772925676533       -0.60209499098372       -1.43108605328227
H            1.87291853736386       -3.35156881152106       -2.70696885563125
H            1.95765545352312       -1.97208575016723       -0.66413208232190
H           -2.06795198721520       -1.96101340996229       -3.47362998861753
C            0.06843824629189       -0.32300596125697        0.30617654887823
C            0.80406212988064        0.99235310461984        0.02347127622918
H            0.58176477162171       -0.86242247551730        1.10899033114532
H           -0.93940200292032       -0.11188875209334        0.67652563815773
C            2.21775770761474        0.74172981847487       -0.43427842140395
O           -0.11140475816823       -3.52136824108461       -4.37998407996623
H           -0.97194302851781       -3.42138684594920       -4.84156935590317
O            3.11135954400399        0.63839980997869        0.38233523961834
N            0.11981796302001        1.82656008682992       -0.96386952127796
H            0.88576415207747        1.57844888781145        0.95417058176753
H           -0.19580238852949        1.24252452959215       -1.72779699124150
H           -0.71660733391421        2.23053264253979       -0.56222711629395
N            2.43372520956528        0.66426701037750       -1.79258474673905
C            3.71644040000474        1.07099400207588       -2.33117277587841
H            1.65825757151033        0.79210342816154       -2.44988867250411
C            3.64146010335241        2.51801963816557       -2.78853376781912
O            4.56899505050585        2.95009856841221       -3.43650180123080
O            2.54885751611328        3.25336773574820       -2.45113085519091
H            1.85436814808577        2.75081615609387       -1.94028449743538
C            4.17124953769654        0.11333799535607       -3.44055292542801
H            4.43108554650833        1.01421604433958       -1.49631731091330
C            5.65277487426513        0.05079035197917       -3.61418441430730
H            3.69379899372891        0.39902986925944       -4.38210336414182
H            3.80266884104845       -0.89194243214097       -3.21049034958975
C            6.45349090497421        0.80057451854612       -4.52753238745076
C            6.15078466465394        1.78802065786188       -5.48037346444224
C            7.17086859984087        2.33901439408502       -6.20465161231080
C            8.50081431067532        1.93293569540195       -6.01046776170703
C            8.82163771920279        0.98090121496577       -5.08238475360798
C            7.79074674463844        0.40755530375757       -4.32723266607624
H            5.13783049726560        2.13742815475505       -5.57944524049717
H            6.95386817355530        3.10965136434564       -6.92538696752603
H            9.28169422030260        2.38920934824746       -6.59598630491602
H            9.83839525736827        0.67225774881557       -4.91862779692376
N            7.79804403068728       -0.54114176505685       -3.32082723013631
C            6.50992734008246       -0.74095107346697       -2.89113776332246
H            8.63840459186269       -0.98196210066043       -2.94255081549410
H            6.22082582915840       -1.41665482927297       -2.10239009261808
