48
Energy =
C    -1.2399620   -1.0106028   -0.8226450 
C     0.1173453   -1.0389423   -0.8317251 
C    -1.9095895   -0.6975855    0.3183248 
C    -1.2161140   -0.4133764    1.4429860 
C     0.1402188   -0.4390635    1.4398892 
C     0.8172142   -0.7528032    0.3004169 
H     0.6373322   -1.2897737   -1.7519103 
H    -1.7620080   -0.1631540    2.3451196 
H     0.6775154   -0.2040454    2.3541866 
H    -1.7885594   -1.2373151   -1.7299906 
C     2.3323345   -0.7734556    0.2898262 
C     2.9639189    0.5699958   -0.1570310 
H     2.6840704   -1.5891366   -0.3806984 
H     2.7127263   -1.0376742    1.3007859 
C     2.6480912    0.9083667   -1.6137964 
O    -3.3070990   -0.6626700    0.3624293 
H    -3.7502673   -0.8701338   -0.5253740 
O     1.9553872    2.0708831   -1.9406404 
N     2.5916527    1.6584866    0.7622274 
H     4.0694688    0.4620622   -0.1099132 
H     1.5776650    1.8959018    0.6413387 
H     2.7355880    1.3634758    1.7552036 
N     2.9107877   -0.0408478   -2.6640545 
C     4.3595287   -0.1676222   -2.9644594 
H     2.3812064    0.2936430   -3.5001823 
C     5.1028811    1.1372120   -3.2810764 
O     6.4571497    1.2009827   -2.9827525 
O     4.5350557    2.2050136   -3.9731597 
H     3.5356014    2.1248890   -4.0612370 
C     4.5801443   -1.2316559   -4.0634838 
H     4.8680628   -0.5734076   -2.0610699 
C     3.9886395   -0.8489840   -5.4043621 
H     4.1279818   -2.1906146   -3.7257771 
H     5.6690947   -1.4337479   -4.1787889 
C     4.5680126   -0.1194814   -6.3733111 
C     5.8043957    0.4410789   -6.4264776 
C     6.1485253    1.1490316   -7.5404751 
C     5.2650759    1.2810093   -8.5756547 
C     4.0310767    0.7066752   -8.5026842 
C     3.7127806    0.0135111   -7.3894424 
H     6.5082775    0.3472956   -5.6041479 
H     7.1285462    1.6174442   -7.6012114 
H     5.5460398    1.8505103   -9.4584013 
H     3.3174050    0.8040347   -9.3139030 
N     2.4882806   -0.6528664   -7.1158128 
C     2.7521736   -1.1862080   -5.8110869 
H     1.6309813   -0.7300020   -7.7112601 
H     2.0465729   -1.7758116   -5.2272138 
