48
Energy =
C    -2.7250369    1.0964146    1.3181325 
C    -1.8878562    0.6663381    0.3407828 
C    -2.9319809    0.3343874    2.4251417 
C    -2.2975353   -0.8538180    2.5467512 
C    -1.4587571   -1.2890588    1.5725825 
C    -1.2522819   -0.5322669    0.4601131 
H    -1.7277541    1.2905951   -0.5347053 
H    -2.4693819   -1.4507116    3.4358039 
H    -0.9549466   -2.2450796    1.6909071 
H    -3.2265251    2.0522724    1.2124979 
C    -0.3031620   -1.0085508   -0.6169737 
C     1.1743318   -0.7499909   -0.2405864 
H    -0.5378077   -0.5178121   -1.5884045 
H    -0.4651828   -2.0988455   -0.7773709 
C     2.1092643   -1.4580125   -1.1995526 
O    -3.7878495    0.7483660    3.4510176 
H    -4.2249199    1.6482930    3.2845704 
O     2.9573840   -2.4549537   -0.7345093 
N     1.4589882    0.6962632   -0.1997026 
H     1.3902911   -1.1986602    0.7593063 
H     1.1023305    1.1638359   -1.0677965 
H     0.9586697    1.1295492    0.6123353 
N     2.2209975   -1.0330974   -2.5600691 
C     3.3371614   -0.1268960   -2.8742525 
H     1.5165250   -1.3488856   -3.2639850 
C     2.8783269    1.0131036   -3.7757523 
O     1.9319848    0.7693542   -4.7642875 
O     3.4357235    2.2893569   -3.6886630 
H     4.1509970    2.3522773   -2.9787561 
C     4.4544104   -0.9554884   -3.5341141 
H     3.7195881    0.3441765   -1.9364353 
C     5.7493647   -0.1801281   -3.6009241 
H     4.1392958   -1.2769320   -4.5530417 
H     4.6154905   -1.8922621   -2.9532664 
C     6.6493012   -0.0441237   -2.6153016 
C     6.6560172   -0.5738813   -1.3650459 
C     7.6935084   -0.2625745   -0.5362645 
C     8.6937460    0.5673134   -0.9627561 
C     8.6615025    1.0923766   -2.2208832 
C     7.6265889    0.7661672   -3.0232963 
H     5.8580688   -1.2283044   -1.0215244 
H     7.7230116   -0.6750153    0.4696531 
H     9.5157795    0.8123993   -0.2948289 
H     9.4425117    1.7580812   -2.5722311 
N     7.3891135    1.2199857   -4.3485395 
C     6.1470491    0.5665150   -4.6458400 
H     7.9651592    1.8581112   -4.9442904 
H     5.5834032    0.6981878   -5.5690613 
