48
Energy =
C    -3.4708370   -0.9273679   -0.9088553 
C    -2.5925321   -0.4962941   -1.8494770 
C    -3.0610174   -1.7765016    0.0711966 
C    -1.7734519   -2.1886378    0.1028225 
C    -0.8907214   -1.7605481   -0.8347357 
C    -1.2966192   -0.9131158   -1.8194168 
H    -2.9348837    0.1854745   -2.6237949 
H    -1.4595212   -2.8656422    0.8895767 
H     0.1401133   -2.1017142   -0.7916083 
H    -4.5013073   -0.5903305   -0.9418080 
C    -0.3083140   -0.4219006   -2.8534885 
C     0.6034758    0.7057207   -2.3101019 
H    -0.8310288   -0.0714882   -3.7719447 
H     0.3188419   -1.2806304   -3.1838768 
C     1.7219733    1.0512920   -3.2813135 
O    -3.9395615   -2.2382216    1.0567456 
H    -4.8868040   -1.8888840    0.9602813 
O     1.7925051    0.4505147   -4.5351067 
N    -0.1859428    1.9060987   -1.9906917 
H     1.1092706    0.3475400   -1.3850634 
H    -0.7634009    2.1849498   -2.8195255 
H    -0.8421573    1.6990521   -1.2016607 
N     2.7652900    1.9497788   -2.8797167 
C     4.1665807    1.4888349   -2.7497432 
H     2.4929811    2.9277570   -2.6293307 
C     5.0602663    2.1655339   -3.7846758 
O     6.1882665    2.8555911   -3.3580522 
O     4.8248845    2.0503068   -5.1545130 
H     3.9259422    1.6233167   -5.3381825 
C     4.3032474   -0.0561883   -2.7980825 
H     4.5402625    1.8347445   -1.7592126 
C     5.7094995   -0.5003798   -2.4608365 
H     4.0315338   -0.4302145   -3.8129312 
H     3.5897094   -0.5268184   -2.0899668 
C     6.2126679   -0.7180874   -1.2354171 
C     5.6136567   -0.6307515   -0.0197163 
C     6.3604475   -0.8958615    1.0906218 
C     7.6797522   -1.2359808    0.9709550 
C     8.2609831   -1.3114386   -0.2600770 
C     7.5005686   -1.0480212   -1.3433621 
H     4.5695869   -0.3511297    0.0793951 
H     5.9062620   -0.8314398    2.0765795 
H     8.2696361   -1.4413569    1.8608852 
H     9.3081698   -1.5712220   -0.3725423 
N     7.9117028   -1.0507085   -2.7029484 
C     6.6940055   -0.6743608   -3.3608843 
H     8.8474480   -1.2766475   -3.1121541 
H     6.5983025   -0.5021147   -4.4338404 
