48
 energy: -9.293752755689 gnorm: 0.000802792101 xtb: 6.6.0 (2ccbbd7)
C           -1.51139666453795       -2.21950857515390       -4.13368285778583
C           -1.40922249849190       -1.54600992546125       -2.93865411413816
C           -0.39242144263296       -2.82392093051268       -4.70794382917345
C            0.82633103938862       -2.72057210547393       -4.04088051238799
C            0.91712655141841       -2.04529672654875       -2.84928860262051
C           -0.19509633159547       -1.45285762472351       -2.27411945120867
H           -2.27976888562313       -1.08311631559367       -2.50690638696451
H            1.69415038849386       -3.17453954731477       -4.48433115740781
H            1.86791849080611       -1.95336084433782       -2.35899869716164
H           -2.45800356055492       -2.28637323971662       -4.63921981291642
C           -0.07267883270615       -0.69732328898911       -0.98720650533019
C            0.33083211629704        0.77195924916526       -1.17607907993904
H            0.66309470530510       -1.19799103460976       -0.34907316052701
H           -1.02348610391117       -0.75133971195149       -0.44750364012726
C            1.68955359954670        0.88536696776999       -1.82494864362083
O           -0.45677589886558       -3.51364234029998       -5.90294956926731
H           -1.36939355195017       -3.47917706156282       -6.26221397728213
O            1.74148476829150        0.94263786173210       -3.03506005203347
N           -0.61976384886292        1.51052825644191       -1.99094711141958
H            0.37681805167195        1.27074649962423       -0.19482868268824
H           -0.43073663575875        1.29075854847007       -2.96553638544986
H           -1.57454936772255        1.24873638944100       -1.77616725472936
N            2.80111764135252        0.91911052378734       -1.01068554406348
C            4.15901241634163        1.10950245377134       -1.52711190016450
H            2.69270921128598        1.14223994891982       -0.01952799676330
C            4.40060695034181        2.57860614816044       -1.81202615495341
O            5.38394839664799        3.10306753751264       -1.33663887316094
O            3.48271930458830        3.17254465408839       -2.60751647309242
H            2.78652595983773        2.50753847101627       -2.83148122895356
C            4.45606236344624        0.26691002612808       -2.76651600990944
H            4.87057975790328        0.82195155772674       -0.73973815935229
C            4.31657170940147       -1.21624228510855       -2.62081090873704
H            5.46579929340914        0.49625121497657       -3.12353942529623
H            3.78017787755150        0.59138291674468       -3.56407622708100
C            4.09820740467678       -2.02463103615029       -1.45797683208451
C            3.91607464732177       -1.74871939136688       -0.09025046932698
C            3.70635871550786       -2.78323420407942        0.77835287483470
C            3.66247660273868       -4.11163519489491        0.33008073720009
C            3.82406004807738       -4.41204345388284       -0.99319955808008
C            4.04118351921922       -3.36427201122006       -1.89632873703232
H            3.92063609956408       -0.73615670256203        0.26283641518582
H            3.56772930820801       -2.57692600740767        1.82671922798147
H            3.49624085808267       -4.90453499036979        1.04046423709252
H            3.78700229878447       -5.42539472108285       -1.35072050985884
N            4.20747870716014       -3.36682353143516       -3.26751044543068
C            4.37989078322717       -2.07530168870750       -3.69095169744059
H            4.22753563911551       -4.20496421941350       -3.85120333824622
H            4.53117490869417       -1.78153471254138       -4.71735119435127
