48
Energy =
C    -3.4216305    1.6668642    0.3395986 
C    -2.2752177    1.3431821   -0.3101212 
C    -3.6175080    1.2622507    1.6229645 
C    -2.6624633    0.5368420    2.2481579 
C    -1.5135601    0.2108189    1.6034386 
C    -1.3150640    0.6086139    0.3170393 
H    -2.1309631    1.6793941   -1.3335913 
H    -2.8298331    0.2221649    3.2724007 
H    -0.7560762   -0.3699450    2.1233286 
H    -4.1798773    2.2516386   -0.1696378 
C    -0.0261589    0.2621053   -0.3946407 
C     1.1250972    1.2194194   -0.0040355 
H    -0.1768529    0.2762717   -1.4974561 
H     0.2544261   -0.7842683   -0.1362112 
C     2.4586402    0.7232645   -0.5300312 
O    -4.7873508    1.5788389    2.3212293 
H    -5.4517280    2.1254388    1.7843381 
O     3.4821713    0.4091564    0.3574377 
N     0.8538720    2.5877941   -0.4761120 
H     1.2318223    1.2310349    1.1069725 
H     0.5359497    2.5768330   -1.4747811 
H     0.0754487    3.0040829    0.0872726 
N     2.6776804    0.5489435   -1.9365094 
C     3.5348637    1.5468695   -2.6068776 
H     2.2417929   -0.2679140   -2.4176769 
C     2.7241224    2.5825798   -3.3849953 
O     3.1925125    3.8890331   -3.4581203 
O     1.5529488    2.2583800   -4.0733519 
H     1.3879559    1.2639372   -4.0595730 
C     4.5962230    0.8286349   -3.4710051 
H     4.0956635    2.1380854   -1.8431035 
C     4.0122051    0.0798559   -4.6508141 
H     5.1540479    0.1138884   -2.8240153 
H     5.3498067    1.5639276   -3.8300358 
C     3.7594054    0.5690056   -5.8758710 
C     3.9649356    1.8141122   -6.3780250 
C     3.6083854    2.0588699   -7.6715302 
C     3.0616771    1.0664606   -8.4372344 
C     2.8675402   -0.1769115   -7.9130440 
C     3.2266092   -0.3935229   -6.6302378 
H     4.3953572    2.6064433   -5.7724766 
H     3.7566537    3.0498362   -8.0938454 
H     2.7789840    1.2701042   -9.4668234 
H     2.4346693   -0.9753101   -8.5057795 
N     3.1063229   -1.6042739   -5.8981282 
C     3.6399319   -1.2117858   -4.6277947 
H     2.7257283   -2.5291014   -6.2022485 
H     3.7302133   -1.8723370   -3.7686894 
