48
Energy =
C    -1.9089252    2.8586917   -2.8524295 
C    -1.1738628    2.2167281   -3.7952944 
C    -2.5316465    2.1508563   -1.8724910 
C    -2.4129499    0.8039264   -1.8425063 
C    -1.6783797    0.1570057   -2.7821013 
C    -1.0595663    0.8603235   -3.7697963 
H    -0.6653172    2.7967703   -4.5620924 
H    -2.9072489    0.2509441   -1.0515370 
H    -1.5782180   -0.9245425   -2.7297310 
H    -1.9896228    3.9400803   -2.8798046 
C    -0.1975440    0.1503308   -4.7911136 
C     1.2957696    0.2258415   -4.4120309 
H    -0.3522387    0.6169690   -5.7885578 
H    -0.5043009   -0.9151553   -4.8925786 
C     1.5744575   -0.4831565   -3.0900767 
O    -3.2930401    2.7817680   -0.8833930 
H    -3.3293406    3.7913704   -0.9738597 
O     1.3528724   -1.8569721   -3.0087046 
N     2.1164611   -0.3433859   -5.4944312 
H     1.5683251    1.2958364   -4.2952591 
H     1.8169319   -1.3301348   -5.6893281 
H     1.9753669    0.2088172   -6.3736032 
N     1.7441164    0.2530290   -1.8609971 
C     3.0460867    0.9608473   -1.7362236 
H     1.6625779   -0.4470485   -1.0867339 
C     3.0336864    2.3168982   -2.4430614 
O     4.1584795    2.7531331   -3.1321530 
O     1.9311248    3.1674395   -2.3677942 
H     1.1825429    2.7528119   -1.8295903 
C     4.2613770    0.0783256   -2.1477266 
H     3.1772099    1.2392518   -0.6667476 
C     4.4377534   -1.1181646   -1.2384301 
H     5.1953473    0.6821889   -2.1068438 
H     4.1738420   -0.2424316   -3.2122326 
C     4.9260082   -1.1081004    0.0128215 
C     5.3883214   -0.0717736    0.7591826 
C     5.8379183   -0.3314333    2.0205037 
C     5.8215290   -1.6081840    2.5105541 
C     5.3569427   -2.6334789    1.7413313 
C     4.9171804   -2.3509243    0.4972362 
H     5.4083742    0.9425371    0.3711380 
H     6.2128524    0.4810053    2.6389837 
H     6.1820617   -1.8074400    3.5170559 
H     5.3390797   -3.6525656    2.1136266 
N     4.4028072   -3.2652145   -0.4595671 
C     4.1175927   -2.3854756   -1.5557551 
H     4.2725377   -4.3012095   -0.3903953 
H     3.7001180   -2.7086031   -2.5077128 
