48
Energy =
C     7.4994004    0.9685985    0.0733619 
C     6.5915738    0.2373339    0.7739521 
C     8.0557202    0.4582257   -1.0606964 
C     7.7080467   -0.7668528   -1.4786669 
C     6.8094737   -1.5002619   -0.7937559 
C     6.2370820   -1.0058934    0.3402571 
H     6.1477191    0.6484448    1.6771375 
H     8.1612602   -1.1623502   -2.3688957 
H     6.5634113   -2.4769301   -1.1870550 
H     7.7782581    1.9580496    0.4182979 
C     5.2105285   -1.8197308    1.1022300 
C     3.7524947   -1.5740568    0.6330433 
H     5.2898735   -1.5926526    2.1877230 
H     5.4573639   -2.8996354    1.0016443 
C     3.3840655   -0.0989050    0.6458329 
O     8.9846119    1.1644138   -1.8237748 
H     9.2274086    2.0665335   -1.4314790 
O     3.4966156    0.6235807    1.8302652 
N     3.4995246   -2.2033970   -0.6747314 
H     3.0755435   -2.0460921    1.3797369 
H     4.1930842   -1.8358605   -1.3649203 
H     3.7081292   -3.2278847   -0.6028848 
N     2.8934920    0.5682529   -0.5244454 
C     3.6981461    1.6900544   -1.0443441 
H     2.0220973    0.2192908   -0.9834264 
C     2.8539310    2.9428773   -1.2301571 
O     1.5106159    2.8297874   -1.5712248 
O     3.4212651    4.2182987   -1.1753330 
H     4.4024557    4.1921387   -0.9395522 
C     4.4070406    1.2774242   -2.3513215 
H     4.4883459    1.9621521   -0.3093729 
C     3.4496386    1.0263959   -3.4999936 
H     5.0034180    0.3577585   -2.1643983 
H     5.1397416    2.0630165   -2.6359631 
C     3.0037642    1.9281738   -4.3908304 
C     3.2927646    3.2495465   -4.5149704 
C     2.6881118    3.9556795   -5.5128270 
C     1.8158074    3.3377939   -6.3656837 
C     1.5429214    2.0096829   -6.2249606 
C     2.1529293    1.3331303   -5.2290041 
H     3.9802357    3.7467889   -3.8373148 
H     2.8969694    5.0170388   -5.6252773 
H     1.3345147    3.9087007   -7.1560348 
H     0.8507639    1.5044650   -6.8903641 
N     2.0025601   -0.0422007   -4.9098573 
C     2.8739020   -0.1574189   -3.7770846 
H     1.4186769   -0.7752153   -5.3750158 
H     3.0350523   -1.0769651   -3.2213680 
