48
Energy =
C    -1.4871746   -0.3646068   -7.7159853 
C    -0.7780924   -0.7239284   -6.6163384 
C    -2.2100092    0.7871866   -7.7169786 
C    -2.2161547    1.5732360   -6.6164894 
C    -1.5089040    1.2189392   -5.5136372 
C    -0.7880095    0.0641767   -5.5056353 
H    -0.1989247   -1.6435009   -6.6345989 
H    -2.7936244    2.4910767   -6.6320794 
H    -1.5231284    1.8663796   -4.6407662 
H    -1.4723028   -0.9999678   -8.5948933 
C     0.0134876   -0.3229624   -4.2821174 
C     1.3492870    0.4501334   -4.1892303 
H     0.2159222   -1.4178589   -4.2722700 
H    -0.6001962   -0.1255289   -3.3748514 
C     2.0055441    0.2290206   -2.8384848 
O    -2.9528584    1.1859976   -8.8330583 
H    -2.8916280    0.5465895   -9.6178750 
O     2.1196680   -1.0547169   -2.3149090 
N     2.2595410    0.0525827   -5.2785255 
H     1.1424832    1.5449164   -4.2599654 
H     2.3615166   -0.9916222   -5.2981801 
H     1.8580809    0.3476791   -6.2000893 
N     2.5291166    1.3323607   -2.0862163 
C     3.9523340    1.7238915   -2.2100692 
H     1.8773422    1.8411254   -1.4475427 
C     4.1024687    3.0423986   -2.9652369 
O     4.5958935    4.1524008   -2.2913166 
O     3.7541138    3.1790559   -4.3087878 
H     3.4140046    2.3125897   -4.6959128 
C     4.8347702    0.5838370   -2.7858873 
H     4.3223529    1.9382550   -1.1807774 
C     6.3101620    0.9022750   -2.6695067 
H     4.5637046    0.3624479   -3.8416737 
H     4.6306700   -0.3542432   -2.2203297 
C     7.1000525    1.4587260   -3.6035223 
C     6.8137574    1.8461067   -4.8733400 
C     7.8095846    2.3993767   -5.6230057 
C     9.0634522    2.5545900   -5.1003008 
C     9.3288809    2.1579102   -3.8234692 
C     8.3269460    1.6134214   -3.1015166 
H     5.8201197    1.7314354   -5.2935457 
H     7.6018837    2.7243376   -6.6397719 
H     9.8501181    3.0007785   -5.7035759 
H    10.3165934    2.2781734   -3.3917427 
N     8.3913149    1.1471329   -1.7612038 
C     7.0420475    0.7092124   -1.5577730 
H     9.2056155    1.1258901   -1.1053805 
H     6.6646517    0.2944604   -0.6254035 
