48
Energy =
C    -2.5359889    4.0293578   -0.8985403 
C    -1.2369333    3.6561780   -1.0168080 
C    -3.4139988    3.2414373   -0.2246809 
C    -2.9816488    2.0916290    0.3382903 
C    -1.6831981    1.7148035    0.2230924 
C    -0.8040216    2.4764983   -0.4895293 
H    -0.5436496    4.3176860   -1.5272479 
H    -3.6872871    1.4814535    0.8910662 
H    -1.3563147    0.8013771    0.7086100 
H    -2.8671514    4.9651960   -1.3350566 
C     0.6713093    2.0873590   -0.5834092 
C     1.0557493    0.5953444   -1.2177799 
H     1.0299383    2.1971959    0.4572200 
H     1.2249159    2.8734724   -1.1346829 
C     2.2709137    0.8761783   -2.8276530 
O    -4.7604345    3.5948071   -0.0861620 
H    -5.0017033    4.4756079   -0.5269044 
O     1.5208975    0.2603179   -1.9758683 
N     1.5582453   -0.1680812    0.1220592 
H    -0.2244861    0.2478926   -1.2519159 
H     2.1977656    0.4274914    0.6848980 
H     0.7327136   -0.3848750    0.7224537 
N     3.7261360    2.5506348   -0.7128751 
C     4.5615373    0.6779517   -0.5344853 
H     3.1352908    2.6984940    0.1343564 
C     6.0592880    0.7166429   -0.7195057 
O     6.8197385   -0.3360614   -0.2301308 
O     6.6925924    1.7301890   -1.4340736 
H     6.0425927    2.4570934   -1.6994306 
C     3.6325897   -0.8463081   -2.1071780 
H     4.4031519    0.2889775    0.4917477 
C     1.9039534   -1.0817730   -3.7515588 
H     3.4079548   -1.7101475   -1.4458123 
H     4.5327285   -1.1864042   -2.6607086 
C     0.6941234    0.2175492   -4.1660258 
C     0.6727671    1.9380059   -3.4317147 
C    -0.3608596    2.6022447   -3.9898549 
C    -1.2209778    1.9721918   -4.8909560 
C    -1.1392987    0.6486801   -5.3534377 
C    -0.1523440   -0.2015250   -4.9717142 
H     3.2939100    1.3451933   -1.6749298 
H    -0.5169608    3.6465607   -3.7471084 
H    -2.0392690    2.5744157   -5.2792729 
H    -1.8871969    0.2859827   -6.0511194 
N     0.1466432   -1.5971259   -5.2840785 
C     1.3528568   -2.0461485   -4.5188989 
H    -0.4035272   -2.1926804   -5.9460721 
H     1.7229435   -3.0681842   -4.5351111 
