48
Energy =
C    -4.0456405    2.6471199    0.5568055 
C    -3.0978347    1.7034371    0.7861966 
C    -3.6972877    3.8528391    0.0328674 
C    -2.4011968    4.1047619   -0.2606433 
C    -1.4491467    3.1646496   -0.0333841 
C    -1.7916365    1.9608220    0.5013109 
H    -3.3931286    0.7420766    1.1978136 
H    -2.1369397    5.0680920   -0.6831697 
H    -0.4135008    3.3813334   -0.2841156 
H    -5.0829076    2.4334016    0.7905703 
C    -0.7327281    0.9040986    0.7237025 
C    -0.4995114    0.0520651   -0.5701773 
H    -1.0447258    0.2480969    1.5668844 
H     0.1604157    1.4006072    1.1270940 
C     0.9222120   -0.0620717   -1.1533533 
O    -4.6494075    4.8467188   -0.2159981 
H    -5.5963992    4.5798146    0.0294738 
O     1.0294465   -0.8113264   -2.3162127 
N    -1.0726462   -1.2898272   -0.3677831 
H    -1.0527057    0.5210116   -1.4188378 
H    -0.5662936   -1.7812596    0.4061277 
H    -2.0835442   -1.2133180   -0.1064838 
N     2.0861100    0.6258108   -0.6140474 
C     3.4702890    0.5977211   -1.1762290 
H     1.9364995    1.2921535    0.1623088 
C     3.9754328    1.9699373   -1.6514886 
O     4.8414933    2.0468993   -2.7356725 
O     3.6993754    3.1540191   -0.9667528 
H     3.2498539    2.9981506   -0.0814598 
C     3.7721842   -0.5600645   -2.1745579 
H     4.1330538    0.3891489   -0.3073288 
C     3.4246407   -0.3233021   -3.6456217 
H     3.2945035   -1.4988056   -1.8210966 
H     4.8683650   -0.7435530   -2.1314689 
C     3.8440894   -1.0857464   -4.6693382 
C     4.6475622   -2.1815966   -4.6616167 
C     4.9262118   -2.7911233   -5.8497079 
C     4.4017775   -2.3046904   -7.0149047 
C     3.5942119   -1.2067673   -6.9990439 
C     3.3346993   -0.6203476   -5.8117147 
H     5.0610902   -2.5741991   -3.7375806 
H     5.5670204   -3.6696240   -5.8704650 
H     4.6270623   -2.7965418   -7.9582796 
H     3.1662368   -0.8102213   -7.9139413 
N     2.5159907    0.5143986   -5.5797817 
C     2.6189919    0.6351691   -4.1529860 
H     1.9798302    1.1020107   -6.2592591 
H     2.0852902    1.3781625   -3.5658330 
