48
Energy =
C    -1.2695063   -2.4235353   -0.5331805 
C    -0.3054096   -2.0278272    0.3352621 
C    -1.9511547   -1.5025235   -1.2648221 
C    -1.6734137   -0.1882320   -1.1106314 
C    -0.7205024    0.2145208   -0.2326338 
C    -0.0306756   -0.7046129    0.4979818 
H     0.2460522   -2.7783490    0.8959716 
H    -2.2230175    0.5374759   -1.7003615 
H    -0.5079776    1.2762948   -0.1251756 
H    -1.4836135   -3.4799291   -0.6513448 
C     1.0656839   -0.2667356    1.4449158 
C     2.4179411   -0.1232553    0.7110367 
H     1.1608037   -1.0073162    2.2690646 
H     0.7934288    0.6981397    1.9314077 
C     2.4208378    1.0666113   -0.2346970 
O    -2.9355931   -1.8796488   -2.1836544 
H    -3.1064842   -2.8784048   -2.2182015 
O     1.9274242    2.2959069    0.1860711 
N     3.5128673   -0.0073065    1.6874075 
H     2.5859806   -1.0296731    0.0878472 
H     3.3527721    0.8331244    2.2957833 
H     3.5286577   -0.8494511    2.3095202 
N     2.9077441    0.9511213   -1.5761932 
C     4.3558794    0.7209451   -1.7550946 
H     2.2156326    0.9154293   -2.3574657 
C     5.0708252    1.9856969   -2.2358555 
O     6.1622557    1.8721774   -3.0898327 
O     4.7337526    3.2555225   -1.7706875 
H     3.9316613    3.2300893   -1.1566066 
C     4.5607092   -0.4525932   -2.7420155 
H     4.8504587    0.4699131   -0.7859852 
C     3.9658294   -1.7440613   -2.2279673 
H     5.6497955   -0.6144754   -2.9139021 
H     4.1369494   -0.1882951   -3.7346649 
C     2.7853830   -2.2897822   -2.5677924 
C     1.8405797   -1.8584665   -3.4436357 
C     0.7198983   -2.6166295   -3.6146741 
C     0.5638752   -3.7845242   -2.9217659 
C     1.5203724   -4.1941020   -2.0413565 
C     2.6169210   -3.4236314   -1.8845064 
H     1.9614543   -0.9369098   -4.0029738 
H    -0.0538854   -2.2913251   -4.3069145 
H    -0.3299506   -4.3849521   -3.0696907 
H     1.4101547   -5.1156593   -1.4803254 
N     3.7211359   -3.6692922   -1.0255971 
C     4.5491042   -2.5342530   -1.3095882 
H     3.8805224   -4.4593992   -0.3590002 
H     5.5112162   -2.3407922   -0.8390441 
