48
Energy =
C    -0.2560983    6.2222503   -0.3738857 
C     0.1163326    5.3077745   -1.3068341 
C    -1.4773013    6.1361039    0.2164049 
C    -2.3182558    5.1358069   -0.1308141 
C    -1.9499049    4.2183258   -1.0605383 
C    -0.7255786    4.2945546   -1.6520385 
H     1.0999133    5.3790102   -1.7738966 
H    -3.2908321    5.0795181    0.3459283 
H    -2.6418571    3.4240812   -1.3263579 
H     0.4244624    7.0208757   -0.0983929 
C    -0.3131260    3.2711238   -2.6946172 
C     0.3957486    2.0113381   -2.1245981 
H     0.3633915    3.7458491   -3.4407478 
H    -1.2085194    2.9484632   -3.2690648 
C     1.8134472    2.2548749   -1.6237328 
O    -1.8924150    7.0612117    1.1793087 
H    -1.2047470    7.7753453    1.3927901 
O     2.2790072    3.4002508   -1.5421796 
N    -0.4230185    1.3440678   -1.1009497 
H     0.5208666    1.3083784   -2.9768085 
H    -0.4663608    1.9484925   -0.2465061 
H    -1.3983897    1.2156317   -1.4549387 
N     2.6991028    1.1440926   -1.4144969 
C     4.0900694    1.3807165   -1.8435472 
H     2.3419393    0.2394059   -1.0327063 
C     4.3160134    2.8757553   -2.0767648 
O     5.4947465    3.3297959   -2.6622753 
O     3.4443613    3.6898727   -1.7317862 
H     2.9942177    3.5458018   -0.8518152 
C     4.3812452    0.5520939   -3.1115650 
H     4.7840997    1.0897490   -1.0261573 
C     4.4262800   -0.9289327   -2.8083769 
H     5.3620047    0.8555554   -3.5434232 
H     3.6175005    0.7754273   -3.8871468 
C     3.4210239   -1.8128830   -2.9186875 
C     2.1438037   -1.6343736   -3.3439310 
C     1.3055649   -2.7100508   -3.3501829 
C     1.7509321   -3.9350452   -2.9369340 
C     3.0374117   -4.0912584   -2.5136718 
C     3.8473805   -3.0116702   -2.5169733 
H     1.7868172   -0.6632256   -3.6677192 
H     0.2773202   -2.5918069   -3.6828214 
H     1.0762588   -4.7872385   -2.9433331 
H     3.4057973   -5.0549914   -2.1793578 
N     5.2064761   -2.9572184   -2.1070621 
C     5.5026996   -1.5714061   -2.3219955 
H     5.8209196   -3.7223103   -1.7459462 
H     6.4627563   -1.1072075   -2.1067921 
