48
Energy =
C    -2.4996416   -0.6282199   -5.0102335 
C    -2.1611177   -0.1331665   -3.7897940 
C    -1.6829456   -0.4288881   -6.0828811 
C    -0.5335316    0.2682090   -5.9269878 
C    -0.2032533    0.7596636   -4.7082504 
C    -0.9978722    0.5549645   -3.6316922 
H    -2.8284560   -0.2900706   -2.9467553 
H     0.1152747    0.4281892   -6.7811453 
H     0.7767457    1.3611765   -4.4559770 
H    -3.4260231   -1.1798955   -5.1274647 
C    -0.6124314    1.1684654   -2.2916985 
C     0.9104607    1.0734383   -1.9637175 
H    -1.1837520    0.6631250   -1.4823922 
H    -0.9251860    2.2359453   -2.2908133 
C     1.7867385    1.9851195   -2.8453206 
O    -2.0018258   -0.9287179   -7.3495629 
H    -2.8816959   -1.4309149   -7.3844920 
O     1.6979724    1.9251802   -4.2365499 
N     1.1184764    1.3486198   -0.5312817 
H     1.2576774    0.0366484   -2.1835283 
H     0.6773001    2.2641273   -0.2744379 
H     0.6522965    0.6074859    0.0443815 
N     2.8499009    2.7532898   -2.2707030 
C     4.2679690    2.4033087   -2.5136555 
H     2.5887724    3.5513069   -1.6508227 
C     4.9547552    3.4633416   -3.3697772 
O     6.1413964    4.0293023   -2.9195810 
O     4.4545889    3.8601930   -4.6095810 
H     3.5618143    3.4250811   -4.8008694 
C     4.4451788    0.9745337   -3.0903645 
H     4.7868230    2.4340618   -1.5286739 
C     5.8977053    0.5491399   -3.1032918 
H     4.0182726    0.9150293   -4.1165373 
H     3.8722039    0.2552368   -2.4666883 
C     6.7771661    0.6947805   -4.1086495 
C     6.6067268    1.2200937   -5.3494907 
C     7.6800450    1.2598806   -6.1898374 
C     8.8939805    0.7786995   -5.7838839 
C     9.0422450    0.2565569   -4.5333549 
C     7.9654077    0.2285953   -3.7201187 
H     5.6485520    1.6139319   -5.6746064 
H     7.5698387    1.6849478   -7.1847384 
H     9.7455801    0.8193444   -6.4582712 
H     9.9995540   -0.1229306   -4.1930668 
N     7.9096016   -0.2580118   -2.3864931 
C     6.5377006   -0.0056608   -2.0586379 
H     8.6662028   -0.6893243   -1.8079071 
H     6.0893149   -0.2180557   -1.0906139 
