48
Energy =
C    -2.2536691   -1.0572488   -3.0865181 
C    -1.0897823   -0.4051885   -2.8382399 
C    -3.4121758   -0.6271181   -2.5190986 
C    -3.3972073    0.4535246   -1.7061385 
C    -2.2359256    1.1093314   -1.4545404 
C    -1.0739678    0.6846285   -2.0226372 
H    -0.1716607   -0.7607358   -3.2957459 
H    -4.3277641    0.7852588   -1.2586413 
H    -2.2439950    1.9723683   -0.7941922 
H    -2.2555155   -1.9236581   -3.7388510 
C     0.2277644    1.3996452   -1.7333637 
C     1.1167617    0.6264818   -0.7254152 
H     0.0392767    2.4275510   -1.3513792 
H     0.7735528    1.5269038   -2.6946745 
C     2.5043530    1.2481837   -0.5723085 
O    -4.6284701   -1.2767152   -2.7527733 
H    -4.5575823   -2.0739107   -3.3754945 
O     3.1441801    1.2019270    0.6642248 
N     0.4402357    0.5238085    0.5783324 
H     1.2990425   -0.3999863   -1.1083058 
H     0.2052443    1.4789689    0.9365985 
H    -0.4471475   -0.0223557    0.4881984 
N     3.0387542    2.1241604   -1.5851612 
C     4.4943179    1.8743205   -1.8081610 
H     2.8629604    3.0545220   -1.1609142 
C     5.3408071    3.1096360   -2.1939350 
O     6.6296236    2.8789554   -2.6608630 
O     4.9575822    4.4476056   -2.0607632 
H     4.1028228    4.6087830   -1.5671749 
C     4.6537219    0.8084223   -2.9286161 
H     4.9975338    1.5175085   -0.8784236 
C     3.9502012   -0.5010512   -2.6539419 
H     5.7317878    0.5841272   -3.0975278 
H     4.2744549    1.2420724   -3.8815767 
C     4.2866309   -1.4259328   -1.7411822 
C     5.3115179   -1.4401815   -0.8510219 
C     5.4299321   -2.5125739   -0.0167019 
C     4.5364666   -3.5454454   -0.0877243 
C     3.5205188   -3.5136900   -0.9961472 
C     3.4233395   -2.4411723   -1.8091683 
H     6.0269426   -0.6258059   -0.7957269 
H     6.2382734   -2.5450247    0.7102387 
H     4.6370060   -4.3954053    0.5827386 
H     2.8056180   -4.3262882   -1.0672754 
N     2.4524248   -2.2172255   -2.8224786 
C     2.8689869   -0.9393886   -3.3227171 
H     1.6494169   -2.8228387   -3.1094892 
H     2.3722433   -0.3987093   -4.1258116 
