48
Energy =
C    -2.7713048    2.1162197   -0.4454013 
C    -1.7350423    1.9076939   -1.2959002 
C    -3.3792916    3.3313260   -0.3941362 
C    -2.9415329    4.3318393   -1.1919253 
C    -1.9032491    4.1298333   -2.0422107 
C    -1.2972323    2.9124647   -2.1042543 
H    -1.2486889    0.9360711   -1.3137494 
H    -3.4314620    5.2980194   -1.1373412 
H    -1.5621495    4.9489905   -2.6700173 
H    -3.1081055    1.3103556    0.1973814 
C    -0.1281106    2.6941474   -3.0395701 
C     1.2161574    3.1350020   -2.4016233 
H    -0.3099534    3.2678080   -3.9754579 
H    -0.0679777    1.6256534   -3.3491606 
C     1.6394497    2.2103098   -1.2834404 
O    -4.4536203    3.5787533    0.4668022 
H    -4.7056071    2.7882189    1.0501776 
O     1.0290530    2.2893149   -0.0380592 
N     2.2630424    3.1981454   -3.4402592 
H     1.1133393    4.1390194   -1.9244707 
H     2.3048720    2.2703984   -3.9319653 
H     1.9273495    3.8392883   -4.1995967 
N     2.4351621    1.0659278   -1.5905211 
C     3.8756397    1.2820647   -1.8369015 
H     1.9565872    0.1483957   -1.7206858 
C     4.2880313    2.6910407   -2.3426159 
O     3.4293131    3.6212540   -3.0001779 
O     5.6069076    3.1131928   -2.1466865 
H     6.1631027    2.4392897   -1.6429567 
C     4.4454736    0.1436799   -2.7191556 
H     4.3711554    1.1868841   -0.8460654 
C     3.8440124    0.1038544   -4.1065179 
H     4.2563063   -0.8308789   -2.2167082 
H     5.5506628    0.2329528   -2.7953360 
C     4.2631070    0.7737416   -5.1938827 
C     5.3124548    1.6217841   -5.3480980 
C     5.5102818    2.1942705   -6.5701838 
C     4.6673191    1.9132983   -7.6093620 
C     3.6199318    1.0593846   -7.4316779 
C     3.4451949    0.5063126   -6.2134257 
H     5.9797993    1.8553451   -4.5250032 
H     6.3395166    2.8821198   -6.7157370 
H     4.8305347    2.3750380   -8.5795880 
H     2.9393543    0.8279232   -8.2435881 
N     2.4147626   -0.3870044   -5.8177845 
C     2.7467024   -0.5980551   -4.4403358 
H     1.6222563   -0.7722476   -6.3811515 
H     2.1856957   -1.2416227   -3.7675722 
