48
Energy =
C    -0.2908690    6.2949160    1.0898708 
C    -0.2126198    6.1391496   -0.2559747 
C     0.6029068    5.6719880    1.9037874 
C     1.5702928    4.8968487    1.3641005 
C     1.6546902    4.7389167    0.0194549 
C     0.7595883    5.3563690   -0.8012303 
H    -0.9344854    6.6453307   -0.8912019 
H     2.2755828    4.4023852    2.0227872 
H     2.4383452    4.1074053   -0.3922980 
H    -1.0698633    6.9194654    1.5136347 
C     0.8493100    5.1805252   -2.3036953 
C     0.0037656    4.0004854   -2.8595005 
H     1.9167293    5.0575868   -2.5972213 
H     0.5342060    6.1214459   -2.8048238 
C     0.4218254    2.6400617   -2.3152469 
O     0.5509217    5.8141286    3.2944457 
H    -0.2078491    6.4026389    3.6201157 
O     0.2100017    2.3097283   -0.9795291 
N    -1.4373800    4.2403651   -2.6614165 
H     0.1991362    3.9398935   -3.9566757 
H    -1.6713653    4.1747889   -1.6400257 
H    -1.6987063    5.2003713   -2.9870367 
N     1.0243316    1.6657051   -3.1817532 
C     2.4505265    1.4715263   -2.8296493 
H     0.5029139    0.7806350   -2.9839962 
C     3.2848117    2.7200371   -3.0969553 
O     4.2329644    3.1110912   -2.1625367 
O     3.0825253    3.5267353   -4.2166113 
H     2.4775933    3.0713826   -4.8865844 
C     3.0149245    0.2266352   -3.5554160 
H     2.5511863    1.2782479   -1.7323291 
C     2.9291829    0.3218060   -5.0641562 
H     2.4597167   -0.6768800   -3.2192288 
H     4.0703479    0.0583547   -3.2461893 
C     3.8668469    0.7955939   -5.9010410 
C     5.0974487    1.3039813   -5.6345611 
C     5.8608538    1.7364160   -6.6789256 
C     5.3887798    1.6559604   -7.9597675 
C     4.1480433    1.1464937   -8.2031708 
C     3.4121275    0.7256615   -7.1530159 
H     5.4672921    1.3880728   -4.6170971 
H     6.8457687    2.1557390   -6.4898623 
H     6.0016086    2.0065092   -8.7859422 
H     3.7552483    1.0826897   -9.2119277 
N     2.0997353    0.1846153   -7.1868906 
C     1.8606783   -0.0449390   -5.7925558 
H     1.4793136    0.0058584   -8.0086402 
H     0.9388226   -0.4524199   -5.3855445 
