48
Energy =
C    -1.7801479    3.1362033   -4.2914295 
C    -1.0372467    2.8770714   -3.1788823 
C    -1.5386149    2.5071497   -5.4751853 
C    -0.5633694    1.5887579   -5.5792176 
C     0.1577585    1.3078232   -4.4973341 
C    -0.0160150    1.9612041   -3.1887281 
H    -1.2633373    3.4502033   -2.2813009 
H    -0.3923381    1.0539271   -6.5051537 
H     0.8765196    0.8228573   -3.8088462 
H    -2.5765273    3.8772331   -4.2362946 
C     0.9513386    1.9832664   -1.7557298 
C     1.6110622    0.8227403   -0.6550347 
H     0.3840618    2.6450660   -1.0666784 
H     1.8117656    2.6372783   -2.0254303 
C     2.9070542   -0.1524401   -0.9898268 
O    -2.2997094    2.7847139   -6.6066681 
H    -3.0224287    3.4892425   -6.4789825 
O     2.9019937   -0.6960869   -2.2244977 
N     1.8675104    1.5100006    0.6164859 
H     0.7857495    0.0928190   -0.4662141 
H     2.4967645    2.3395387    0.4738714 
H     0.9757555    1.8651216    1.0441364 
N     3.9533927   -0.7910153   -0.2646076 
C     5.1408182   -1.0081168   -1.2128571 
H     3.5872380   -1.7278793    0.0256148 
C     5.8168071    0.3446897   -1.4433750 
O     5.0734406    1.3471484   -2.0610787 
O     7.1482307    0.5930197   -1.1235067 
H     7.6045841   -0.1734225   -0.6504033 
C     5.0080482   -1.7834936   -2.7037527 
H     5.8829682   -1.5998853   -0.6278695 
C     3.8371648   -2.4091775   -3.6708911 
H     5.7236623   -2.6249472   -2.5614542 
H     5.5745175   -1.1553835   -3.4331150 
C     2.4926921   -2.1005209   -4.1098069 
C     1.5064663   -1.0842141   -3.7692042 
C     0.1891366   -1.4699405   -3.9675670 
C    -0.1408609   -2.5560257   -4.7049464 
C     0.8141174   -3.3688590   -5.1947753 
C     2.0980843   -3.1400467   -4.8756143 
H     1.8600385    0.3395370   -2.8774741 
H    -0.6300559   -0.9026074   -3.5349947 
H    -1.1878995   -2.7956235   -4.8826783 
H     0.5439821   -4.2539387   -5.7631781 
N     3.1360804   -4.0661241   -5.1122542 
C     4.1836861   -3.5471412   -4.3113397 
H     3.1295517   -4.9247493   -5.7126816 
H     5.1476242   -4.0468232   -4.2246483 
