48
Energy =
C     1.9217002    0.4743620    4.9186401 
C     1.1916882    1.1174559    3.9723069 
C     2.7508508   -0.5445759    4.5670282 
C     2.8429807   -0.9137084    3.2693619 
C     2.1160776   -0.2738794    2.3187843 
C     1.2837676    0.7460151    2.6654753 
H     0.5351995    1.9315852    4.2689475 
H     3.5066277   -1.7289100    3.0025188 
H     2.2034828   -0.5857059    1.2813034 
H     1.8411633    0.7774607    5.9570812 
C     0.4855696    1.4696529    1.6030370 
C     1.3444163    2.4791671    0.7977710 
H    -0.3907124    1.9920303    2.0491130 
H     0.0491507    0.7122704    0.9114901 
C     0.6002563    2.9921159   -0.4440935 
O     3.5188237   -1.2264224    5.5162606 
H     3.3883512   -0.8965456    6.4665155 
O    -0.7455918    2.6714621   -0.5872958 
N     1.7488328    3.5988670    1.6662781 
H     2.2441617    1.9426412    0.4297232 
H     0.8986233    4.0786077    2.0526160 
H     2.3103832    3.2490212    2.4778580 
N     1.2228196    3.6666773   -1.5616506 
C     2.6535962    4.0549432   -1.4350109 
H     0.6158688    4.5051999   -1.7301709 
C     2.9040738    5.4922804   -1.9210092 
O     2.2015240    6.5113709   -1.2936450 
O     3.8476398    5.8616290   -2.8794836 
H     4.2241738    5.0886277   -3.3898260 
C     3.5489430    2.9447519   -2.0640370 
H     2.9522914    4.1603139   -0.3721320 
C     3.3028852    2.6612841   -3.5414586 
H     3.3798799    1.9887295   -1.5286411 
H     4.6099117    3.2054974   -1.8737400 
C     4.2300416    2.6092055   -4.5192805 
C     5.5698872    2.8433378   -4.4730219 
C     6.2931973    2.7170822   -5.6226768 
C     5.6794917    2.3565309   -6.7891044 
C     4.3385938    2.1181107   -6.8129465 
C     3.6434946    2.2532072   -5.6643696 
H     6.0714636    3.1284270   -3.5549119 
H     7.3644052    2.9043497   -5.6120732 
H     6.2626533    2.2575176   -7.7012156 
H     3.8360487    1.8256449   -7.7286565 
N     2.2564978    2.0312243   -5.4769791 
C     2.1196637    2.2991122   -4.0764381 
H     1.5304824    1.7389850   -6.1703472 
H     1.1888840    2.1736818   -3.5287054 
