48
 energy: -9.063980403371 gnorm: 0.000923459819 xtb: 6.6.0 (2ccbbd7)
C            1.16745595852742       -0.10183833374332        4.94124453361991
C            1.94468125946096        0.59403232464389        4.04548400146330
C            0.40806575584348       -1.19532600417935        4.52402033079925
C            0.45913420441996       -1.55747261465353        3.17840697310134
C            1.24100106224281       -0.85749754742560        2.29120423348267
C            1.99808995008495        0.22732822400189        2.70746372566368
H            2.52323838185073        1.43755681699316        4.38129246011941
H           -0.13664458906498       -2.39109293859158        2.85158796672426
H            1.24438143925925       -1.12724088388564        1.24872936151784
H            1.13643262529236        0.19143390047898        5.97463667880182
C            2.84091367650457        1.00109288113580        1.73817736642039
C            2.03272919348817        1.75845172280782        0.66878100713811
H            3.54302345776827        0.31833092953959        1.24905362943296
H            3.45857730538383        1.71115276719554        2.29813153438434
C            1.55977516693969        0.82412593837147       -0.42170568174458
O           -0.38337032959247       -1.91537122599719        5.39882354297734
H           -0.32365000358174       -1.53148247418455        6.30071793258059
O            0.50157262879172        0.25167733371210       -0.25989096562537
N            0.87110267650848        2.43235103288654        1.22781779838818
H            2.66187544885320        2.53663884768297        0.20973412307315
H            0.12884065097096        1.74425875821509        1.32395444975941
H            1.07573545348637        2.81870498213230        2.14187227138300
N            2.32473671664242        0.62180580076084       -1.54919900036307
C            3.54760800061196        1.36856506637646       -1.87605811475424
H            1.95064406136411        0.04265505657074       -2.29774170052176
C            3.22250778754309        2.81804879690210       -2.09610210891436
O            4.17065927736209        3.76470102476615       -1.84532015604686
O            1.96127316859144        3.13737320146684       -2.54621179616951
H            1.36057897443212        2.36264054260020       -2.45419209135642
C            4.26864213421969        0.74874792053025       -3.09456126896643
H            4.20853469081062        1.28789313343028       -1.00240424740667
C            5.76079273000361        0.71302114212914       -2.99399000632493
H            3.97304254866264        1.28476855860041       -4.00204064102842
H            3.91378252928816       -0.27862839020562       -3.22937447797549
C            6.62810964472691        1.72824347175031       -2.49262321269491
C            6.39735626714894        2.99585471921041       -1.94834290134090
C            7.45672372439219        3.75451680102651       -1.55012917710021
C            8.77317235134877        3.28055535968288       -1.67701102484700
C            9.03002352783701        2.04456248833327       -2.20525518612548
C            7.94942031020513        1.25443738227746       -2.61944307615382
H            5.23647220447490        3.39016423477071       -1.88025909889845
H            7.27922742724226        4.73389566099873       -1.13827123417443
H            9.59144335915065        3.90376698109074       -1.35620317418733
H           10.03369909773477        1.67336291037214       -2.31070907378428
N            7.88311532072287       -0.00540168091017       -3.18591845884196
C            6.56523198473725       -0.31976457711398       -3.41095916685510
H            8.69276165628760       -0.58741241472680       -3.40836635080189
H            6.22068954006890       -1.24078991929792       -3.85263318800232
