48
 energy: -9.200225360044 gnorm: 0.000480396061 xtb: 6.6.0 (2ccbbd7)
C           -0.25470909747689        4.60653130905266       -1.40673877168590
C            0.81027747052639        3.83309108385739       -1.80047577680791
C           -1.10041599324424        5.18204545108073       -2.35557693996360
C           -0.83731246282249        4.94494283638028       -3.70468560554954
C            0.22886217027878        4.16743086435087       -4.08933824466849
C            1.07255395283969        3.60388072435188       -3.14290129242978
H            1.44358182835557        3.36986101754753       -1.06317971070707
H           -1.49194961179735        5.38534201778188       -4.43541703224914
H            0.41797453007557        3.99039246604102       -5.13402999411013
H           -0.44960774998891        4.76949376368832       -0.36185755671075
C            2.22282067466733        2.74656789676489       -3.54989433788024
C            2.00806821422962        1.25581593036966       -3.30884189535451
H            3.18139864551927        3.08470064821261       -2.83954023565563
H            2.50613818112059        2.94795381558702       -4.58493815266657
C            1.97646026375910        0.97400683961387       -1.82502745278375
O           -2.17822076830303        5.96909095083397       -1.99708699922751
H           -2.23610886557437        6.03419821083690       -1.01950959377992
O            0.88547703284284        0.83335345796017       -1.30832301384189
N            0.77448271246124        0.76921255104843       -3.91378422860541
H            2.81998554700282        0.67668200214005       -3.76357863510048
H            0.00723053741864        0.98981536870973       -3.28442661840173
H            0.60020135682652        1.22231747851467       -4.80291841946939
N            3.11691157222190        0.91326318091312       -1.04611860258394
C            4.54313558409718        1.04027332825851       -1.43916159494873
H            2.98131058391960        0.82803453755571       -0.04076759425911
C            4.97433806488803        2.47330206939566       -1.63802374588022
O            6.12052341364966        2.76736640035869       -1.37376092445930
O            4.05062444327892        3.43486510694318       -2.15492170480804
H            4.50897111028946        4.33099472166645       -2.35505314250232
C            5.01366015520433        0.15849416235362       -2.59973429565847
H            5.10907084767676        0.69401487896562       -0.55764489447707
C            4.65621440187742       -1.28640138395890       -2.46705721043422
H            6.10301694658470        0.24682180307870       -2.67925205542330
H            4.64593461598180        0.55037915599667       -3.54896288777135
C            5.46222875238649       -2.39161916470325       -2.87636242247512
C            6.75115712977661       -2.48316732986803       -3.43051973253569
C            7.25735948099336       -3.72158479473134       -3.71404178855662
C            6.51392272462707       -4.88640733767206       -3.46307612231327
C            5.25739692327427       -4.82219356957734       -2.92605244773508
C            4.72099659100381       -3.56358458089066       -2.62656302014225
H            7.31926718228131       -1.59012447056939       -3.62085799637537
H            8.24473876432334       -3.80787010144890       -4.13641804177734
H            6.94298955401714       -5.84640187817608       -3.69811557920803
H            4.68067886660475       -5.70842386078448       -2.73096254215233
N            3.50513828171353       -3.18058078158555       -2.08895902390781
C            3.47738920227485       -1.81250099100233       -1.99988744850998
H            2.75764470850409       -3.82092275079606       -1.81519657366773
H            2.65186831924505       -1.24599357930330       -1.60658919722506
