48
Energy =
C     2.8385892    3.8945078    4.8934611 
C     3.1145689    2.7299842    4.2539603 
C     2.9681362    5.0802496    4.2410839 
C     3.3750778    5.0929131    2.9518792 
C     3.6522810    3.9314402    2.3064503 
C     3.5225732    2.7397208    2.9545007 
H     3.0065108    1.7914410    4.7918250 
H     3.4767776    6.0466594    2.4440777 
H     3.9806162    3.9655007    1.2685105 
H     2.5141835    3.8743923    5.9283194 
C     3.8221498    1.4418483    2.2332580 
C     2.7098783    1.0627656    1.2225338 
H     3.9656899    0.6032459    2.9519483 
H     4.8004450    1.5469461    1.7057094 
C     3.1966420   -0.0416169    0.2913476 
O     2.6898401    6.2974478    4.8699523 
H     2.3976670    6.2051820    5.8367486 
O     3.6887058   -1.2286409    0.8205258 
N     1.4785279    0.6298909    1.9131109 
H     2.4891775    1.9513059    0.5853984 
H     1.5109108    0.8032655    2.9440591 
H     0.6572295    1.1639961    1.5446298 
N     3.1671213    0.1101723   -1.1388536 
C     4.3709993    0.8190130   -1.6328165 
H     2.2822257    0.6001395   -1.3998011 
C     4.3582646    2.3072554   -1.3027156 
O     5.3051454    2.8119254   -0.4242649 
O     3.3701456    3.1688123   -1.7722539 
H     2.7811426    2.7251836   -2.4595414 
C     4.5104365    0.5714312   -3.1472487 
H     5.2861664    0.4073289   -1.1379497 
C     4.9785096   -0.8417874   -3.4217639 
H     5.2209056    1.3011337   -3.5929490 
H     3.5354529    0.7353122   -3.6552623 
C     6.2328599   -1.2444319   -3.6856517 
C     7.3776316   -0.5213448   -3.8005924 
C     8.5401303   -1.1847627   -4.0632651 
C     8.5438357   -2.5451876   -4.2001074 
C     7.3849769   -3.2513442   -4.0723693 
C     6.2469966   -2.5726771   -3.8165910 
H     7.3850851    0.5572868   -3.6790617 
H     9.4700022   -0.6288600   -4.1576979 
H     9.4755511   -3.0667917   -4.4041818 
H     7.3719246   -4.3317635   -4.1671271 
N     4.9496574   -3.1174990   -3.6237626 
C     4.1904452   -1.9291100   -3.3588284 
H     4.6358984   -4.1140741   -3.6727445 
H     3.1388471   -1.9135154   -3.0759086 
