48
Energy =
C    -1.1690311    1.4165117    4.1106874 
C    -0.3088823    1.5243421    3.0668070 
C    -2.4920007    1.6779214    3.9359013 
C    -2.9452657    2.0450440    2.7157167 
C    -2.0895186    2.1540562    1.6679347 
C    -0.7637394    1.8978299    1.8387245 
H     0.7448608    1.3063536    3.2207707 
H    -4.0028660    2.2492223    2.5896976 
H    -2.4720272    2.4478914    0.6938003 
H    -0.7956587    1.1190006    5.0845277 
C     0.1866405    2.0011470    0.6666697 
C     0.1239185    0.7518792   -0.2432793 
H     1.2298134    2.1590457    1.0219855 
H    -0.0741151    2.9077953    0.0745781 
C     0.8798019    0.9852612   -1.5343171 
O    -3.4054845    1.5754264    4.9900605 
H    -2.9870904    1.2981357    5.8713453 
O     0.2084733    0.9324172   -2.7524012 
N     0.6430317   -0.4357106    0.4583380 
H    -0.9321531    0.5672183   -0.5531212 
H     1.5808600   -0.2222753    0.8753340 
H     0.0016198   -0.6838418    1.2476256 
N     2.3080919    1.0869342   -1.5374957 
C     3.0361874   -0.0738771   -2.0682289 
H     2.7785964    1.9338136   -1.1446379 
C     4.2881990   -0.3517295   -1.2405588 
O     5.3919274    0.4870077   -1.3539981 
O     4.3478744   -1.4093712   -0.3304896 
H     3.4705881   -1.9042739   -0.2579184 
C     3.3570578    0.1954812   -3.5526442 
H     2.3902367   -0.9807913   -2.0005281 
C     3.6230565   -1.0876647   -4.3063761 
H     4.2064735    0.9053411   -3.6519099 
H     2.4842998    0.7098593   -4.0187688 
C     4.8146354   -1.6546652   -4.5536917 
C     6.0661772   -1.2314249   -4.2396304 
C     7.1244720   -2.0106797   -4.6036073 
C     6.9199229   -3.1876620   -5.2687745 
C     5.6547332   -3.5934369   -5.5732061 
C     4.6238635   -2.8051636   -5.2029878 
H     6.2364952   -0.3003027   -3.7074494 
H     8.1359741   -1.6952373   -4.3580120 
H     7.7694086   -3.8041786   -5.5518811 
H     5.4751293   -4.5267010   -6.0960425 
N     3.2397365   -3.0496615   -5.4109872 
C     2.6609363   -1.8923042   -4.7929768 
H     2.7757495   -3.8572680   -5.8875173 
H     1.5902608   -1.7046666   -4.7075035 
