48
Energy =
C     1.5744610    6.7741731   -0.5392341 
C     2.7083743    6.1459230   -0.1379327 
C     1.0974493    6.5845637   -1.7978771 
C     1.7567469    5.7643106   -2.6461616 
C     2.8921019    5.1348218   -2.2510855 
C     3.3811512    5.3255904   -0.9935295 
H     3.0735330    6.3037806    0.8738441 
H     1.3603100    5.6135391   -3.6452515 
H     3.3936541    4.4697188   -2.9464311 
H     1.0487467    7.4271897    0.1496393 
C     4.6386129    4.6172176   -0.5285534 
C     4.3253339    3.3173584    0.2523849 
H     5.2120211    5.3090680    0.1264831 
H     5.3225714    4.4006853   -1.3832660 
C     3.7295920    2.2275529   -0.6388748 
O    -0.0647997    7.2186861   -2.2441005 
H    -0.5103964    7.8071748   -1.5484374 
O     2.4095998    2.3485955   -1.0656437 
N     5.5378794    2.8574456    0.9519387 
H     3.5441090    3.5272617    1.0192983 
H     6.3194595    2.7106429    0.2659908 
H     5.8565587    3.5791180    1.6407519 
N     4.4330036    0.9962898   -0.8790972 
C     4.8999767    0.8609961   -2.2785692 
H     3.7734950    0.2236325   -0.6367717 
C     5.8101844    2.0199653   -2.6810182 
O     5.3013609    3.0950441   -3.3971201 
O     7.1156809    2.1179144   -2.2089508 
H     7.3869132    1.2985371   -1.6838938 
C     3.7126200    0.6451622   -3.2558000 
H     5.5416334   -0.0470843   -2.3204603 
C     4.1678765    0.0477782   -4.5718045 
H     3.1716680    1.6004616   -3.4218063 
H     2.9724911   -0.0500052   -2.8043753 
C     4.3082286    0.6714135   -5.7549866 
C     4.0762094    1.9651077   -6.0987383 
C     4.2977852    2.3445107   -7.3898980 
C     4.7393989    1.4362329   -8.3109925 
C     4.9633587    0.1425128   -7.9461807 
C     4.7392280   -0.2084278   -6.6623480 
H     3.7314375    2.6932824   -5.3730844 
H     4.1272957    3.3766012   -7.6855651 
H     4.9159073    1.7475695   -9.3372480 
H     5.3147011   -0.5903605   -8.6642895 
N     4.9065183   -1.4958378   -6.0862953 
C     4.5163332   -1.2418243   -4.7319754 
H     5.2240610   -2.3862386   -6.5327230 
H     4.5076553   -1.9932912   -3.9467144 
