48
Energy =
C    -0.1902923    1.2019432   -5.7246501 
C    -0.0640124    0.3993201   -4.6383161 
C    -0.7218708    2.4469190   -5.5964306 
C    -1.1226132    2.8799699   -4.3800508 
C    -0.9957623    2.0830299   -3.2895539 
C    -0.4639292    0.8354274   -3.4112348 
H     0.3638540   -0.5921940   -4.7614646 
H    -1.5433710    3.8747783   -4.2910800 
H    -1.3187394    2.4527380   -2.3205168 
H     0.1374021    0.8444974   -6.6953346 
C    -0.2979428   -0.0513853   -2.1929523 
C     1.0925241    0.0905940   -1.5201085 
H    -0.4634025   -1.1115454   -2.4856594 
H    -1.0969147    0.1715633   -1.4515728 
C     2.2393104   -0.1894823   -2.4857654 
O    -0.8681597    3.2998487   -6.6955949 
H    -0.5311795    2.9045403   -7.5669764 
O     3.0705459    0.8463800   -2.9122595 
N     1.2240986    1.4044346   -0.8672857 
H     1.1809733   -0.6907222   -0.7312818 
H     1.2416484    2.1630631   -1.5903625 
H     0.4040037    1.5826297   -0.2423871 
N     2.4169814   -1.5161563   -3.0198928 
C     3.6996741   -1.8522890   -3.6668339 
H     1.6549054   -2.2238386   -2.9183121 
C     3.5016950   -2.0598025   -5.1664456 
O     3.5770540   -3.3364515   -5.7153846 
O     3.2138673   -0.9857071   -6.0097769 
H     3.1327778   -0.1187985   -5.4932099 
C     4.3025055   -3.0884426   -2.9655264 
H     4.4366923   -1.0219837   -3.5773566 
C     4.5343059   -2.8243540   -1.4939109 
H     5.2665604   -3.3692505   -3.4449244 
H     3.6212035   -3.9611722   -3.0866402 
C     5.5403207   -2.1212541   -0.9514060 
C     6.6029974   -1.5210781   -1.5463807 
C     7.4910610   -0.8483443   -0.7593822 
C     7.3049466   -0.7853453    0.5941518 
C     6.2291767   -1.3947336    1.1689687 
C     5.3658469   -2.0554529    0.3694023 
H     6.7504452   -1.5678412   -2.6210411 
H     8.3495815   -0.3568720   -1.2109405 
H     8.0154224   -0.2445002    1.2142501 
H     6.0642249   -1.3505162    2.2400735 
N     4.1848687   -2.7413605    0.7611104 
C     3.7031422   -3.2035474   -0.5069933 
H     3.7793479   -2.8690407    1.7163445 
H     2.7809296   -3.7617252   -0.6461184 
