48
 energy: -9.299211440905 gnorm: 0.000707650263 xtb: 6.6.0 (2ccbbd7)
C           -3.01026952356243       -1.18439645398457        1.48875888802471
C           -1.79657095441680       -0.53877799974252        1.51754806064957
C           -3.18073763609557       -2.34333941988036        0.73030266827961
C           -2.09191317980631       -2.82408504306951        0.00345631796319
C           -0.88303479649733       -2.17329221900754        0.03788750510307
C           -0.71442181551110       -1.02752044789049        0.80073974566243
H           -1.67695102944681        0.36032510381497        2.09741015998654
H           -2.22531159457906       -3.71319668111398       -0.58641499119792
H           -0.05538743225965       -2.53777201987497       -0.54490648046117
H           -3.84290748436530       -0.79922976199338        2.04960207563306
C            0.59249560972600       -0.30155070575009        0.79061473357732
C            0.68659554985844        0.75366064215425       -0.31358014646201
H            1.40642240944992       -1.02011847069840        0.65750412353334
H            0.77429062960870        0.16642906497445        1.76384250936951
C            2.06107438473424        1.38143976562353       -0.29971711909354
O           -4.38665051962930       -3.01580035012697        0.67757206980702
H           -5.05312452903943       -2.55709291405311        1.23297276565797
O            2.54764138989285        1.76659584843984        0.74570518386663
N            0.37370097930711        0.19082965853045       -1.62329922625813
H           -0.04191245493510        1.55476640027006       -0.11490435013923
H            1.00468325905868       -0.57955845774753       -1.85871406797320
H           -0.56756812661769       -0.17826613385740       -1.63763288107851
N            2.75273516791466        1.46396882426505       -1.49030339082676
C            4.20895579009693        1.37286602373735       -1.49701423654225
H            2.31033354442053        1.15497033523477       -2.36123133187732
C            4.80096988100268        2.75531186888188       -1.65265264961824
O            5.57854659609770        2.98835883667797       -2.55072854294418
O            4.36462853936284        3.61813692296341       -0.70291161234942
H            3.72381816921914        3.13324394952781       -0.12029993554151
C            4.68022366997406        0.34715858313836       -2.52680635971010
H            4.48976856922448        1.01217169664711       -0.49630923444678
C            3.89357545668910       -0.91412599962632       -2.37727384564648
H            5.75181527976139        0.15384389753057       -2.41784052214368
H            4.54230370866979        0.76045211001673       -3.53005759760436
C            3.83061950317560       -1.71884091990787       -1.19946887379622
C            4.57099593584633       -1.72331649282088       -0.00458167697126
C            4.23845314506363       -2.62225030480496        0.97027392036388
C            3.18380895371089       -3.53180836506832        0.79165964674695
C            2.44718881163052       -3.54417027542787       -0.36067016241806
C            2.76173771819354       -2.62098504622335       -1.36588559302311
H            5.38627425189040       -1.03428590259690        0.12600596735401
H            4.79702889776698       -2.63697106169245        1.89146237214608
H            2.95320925217716       -4.23201369695451        1.57738330270348
H            1.64349584143618       -4.24324921798448       -0.50736296834021
N            2.17368870333990       -2.34874264586664       -2.58869314559850
C            2.88249330201470       -1.34401214889828       -3.20413360470360
H            1.44681232073807       -2.92378308030701       -3.02155869882268
H            2.62840422280155       -0.90976136387847       -4.15819451032476
