48
Energy =
C    -2.9365075    3.0542920    2.0865559 
C    -1.8319828    2.2729410    1.9780948 
C    -3.0660112    4.1666662    1.3146291 
C    -2.0878628    4.4890673    0.4378088 
C    -0.9813556    3.7119046    0.3257388 
C    -0.8454608    2.5998098    1.0987780 
H    -1.7446340    1.3849086    2.5982206 
H    -2.2022287    5.3765375   -0.1748879 
H    -0.2067981    3.9848111   -0.3880778 
H    -3.7164990    2.7868694    2.7909704 
C     0.3804824    1.7258456    0.9587046 
C     0.3240848    0.8401003   -0.3096427 
H     0.5274016    1.0904866    1.8602427 
H     1.2769038    2.3849879    0.9082026 
C     1.6467244    0.1461283   -0.5837830 
O    -4.1922199    4.9920437    1.4019428 
H    -4.8773232    4.6841380    2.0828931 
O     2.6673566    0.1461014    0.3635944 
N    -0.7601583   -0.1495328   -0.2092693 
H     0.1432543    1.4959517   -1.1948500 
H    -0.6881499   -0.6661222    0.6990331 
H    -1.6830145    0.3450698   -0.2195170 
N     1.9386162   -0.3095914   -1.9079887 
C     3.0250750    0.3936706   -2.6147985 
H     1.4181800   -1.1364810   -2.2751027 
C     2.6140239    1.8216727   -2.9637830 
O     2.0390359    2.0993135   -4.1985793 
O     2.7598000    2.8645383   -2.0470377 
H     3.1432309    2.5490647   -1.1666806 
C     3.4306125   -0.4046128   -3.8738341 
H     3.9156815    0.4775342   -1.9492597 
C     4.0643413   -1.7308940   -3.5163403 
H     4.1484828    0.1865844   -4.4854317 
H     2.5346254   -0.5628394   -4.5167754 
C     5.3234751   -1.9301021   -3.0965834 
C     6.3310453   -1.0383447   -2.9131132 
C     7.5337913   -1.5027978   -2.4679189 
C     7.7093824   -2.8355846   -2.2160041 
C     6.6830439   -3.7123460   -2.4083434 
C     5.5031405   -3.2285965   -2.8500049 
H     6.1939150    0.0202833   -3.1131695 
H     8.3569634   -0.8095019   -2.3113714 
H     8.6706167   -3.1976293   -1.8596633 
H     6.8050231   -4.7720563   -2.2115805 
N     4.3157089   -3.9641876   -3.1092693 
C     3.4313877   -2.9172969   -3.5326759 
H     4.1412176   -4.9913976   -3.0178146 
H     2.3915648   -3.0661476   -3.8159099 
