48
Energy =
C     2.9279870    5.1262943    0.6955825 
C     2.0017311    4.5558973   -0.1163628 
C     3.8562147    5.9776414    0.1826293 
C     3.8609441    6.2393945   -1.1444210 
C     2.9374019    5.6720666   -1.9607738 
C     1.9922241    4.8337422   -1.4500899 
H     1.2741022    3.8662068    0.3075078 
H     4.6201203    6.9012713   -1.5462356 
H     2.9680829    5.8861500   -3.0256387 
H     2.9255355    4.8994284    1.7564623 
C     0.9575362    4.2029282   -2.3629316 
C     1.5297339    2.9921221   -3.1387770 
H     0.5994209    4.9717333   -3.0823829 
H     0.0608379    3.8840540   -1.7842318 
C     1.8703963    1.8095851   -2.2298620 
O     4.8057564    6.6035697    0.9979237 
H     4.7834820    6.3002780    1.9653623 
O     1.2986321    1.7070480   -0.9643895 
N     0.5838058    2.5795171   -4.1896477 
H     2.4857109    3.3014938   -3.6221099 
H    -0.3364951    2.3195869   -3.7572020 
H     0.4111799    3.3714838   -4.8531900 
N     2.8392744    0.8247080   -2.6279345 
C     4.1537092    1.0795529   -1.9930892 
H     2.9097285    0.8306204   -3.6701880 
C     4.7662543    2.4208241   -2.3925172 
O     5.0790194    3.3432844   -1.4051882 
O     4.9697147    2.7797181   -3.7256150 
H     4.8495624    1.9959455   -4.3500651 
C     5.1082713   -0.0893002   -2.3124473 
H     4.0221420    1.1243949   -0.8845757 
C     4.6470343   -1.3692628   -1.6525527 
H     6.1380639    0.1490805   -1.9634061 
H     5.1758591   -0.2403729   -3.4120125 
C     4.8485172   -1.7327698   -0.3765629 
C     5.5131365   -1.0889313    0.6172680 
C     5.5684855   -1.6776398    1.8465284 
C     4.9638808   -2.8855186    2.0618438 
C     4.2990731   -3.5114167    1.0491035 
C     4.2600618   -2.9096773   -0.1583283 
H     5.9878453   -0.1267210    0.4486531 
H     6.0932867   -1.1821426    2.6596180 
H     5.0099322   -3.3471873    3.0447954 
H     3.8095415   -4.4667822    1.2037672 
N     3.6161825   -3.3818722   -1.3334708 
C     3.9078608   -2.3189869   -2.2512102 
H     3.0809032   -4.2664648   -1.4876094 
H     3.5541878   -2.2774161   -3.2783179 
