48
Energy =
C     2.1683479   -0.3876120    4.2434350 
C     1.7879842   -1.1012406    3.1537339 
C     1.6745878    0.8622064    4.4482264 
C     0.8007829    1.3884524    3.5612056 
C     0.4159451    0.6789060    2.4706989 
C     0.9123229   -0.5708972    2.2533564 
H     2.1905265   -2.0999578    3.0076990 
H     0.4106883    2.3852927    3.7363760 
H    -0.2984477    1.1194567    1.7825536 
H     2.8671037   -0.8199034    4.9516656 
C     0.4959807   -1.3725245    1.0318436 
C     1.3998886   -1.1650894   -0.2172724 
H    -0.5605562   -1.1369040    0.7708720 
H     0.4943350   -2.4542564    1.2906620 
C     1.1679575    0.1563767   -0.9506163 
O     2.0454283    1.6234181    5.5611210 
H     2.7047273    1.1607665    6.1772769 
O     0.0853342    0.9607966   -0.6199586 
N     2.8219669   -1.3703155    0.1139993 
H     1.1070165   -1.9411239   -0.9606181 
H     3.1435432   -0.6335488    0.7864126 
H     2.9422219   -2.2999015    0.5800912 
N     1.7797246    0.3733853   -2.2275810 
C     3.1992743    0.7737300   -2.2480041 
H     1.2007856    0.2285646   -3.0840219 
C     3.3892936    2.1462854   -2.8855015 
O     4.0872542    3.1245658   -2.1880960 
O     2.9304825    2.4400303   -4.1712927 
H     2.4252407    1.6655723   -4.5705969 
C     4.0047056   -0.3285479   -2.9664521 
H     3.5887113    0.8868399   -1.2079293 
C     5.4900782   -0.1834555   -2.7194184 
H     3.7875022   -0.3335265   -4.0561494 
H     3.6797228   -1.3218637   -2.5815289 
C     6.3766049    0.4989657   -3.4623935 
C     6.1989160    1.1942090   -4.6151927 
C     7.2786397    1.8142288   -5.1715690 
C     8.5065954    1.7306308   -4.5757668 
C     8.6618268    1.0272385   -3.4183542 
C     7.5783566    0.4225981   -2.8871175 
H     5.2250242    1.2701425   -5.0882404 
H     7.1590556    2.3838328   -6.0900508 
H     9.3608044    2.2320191   -5.0235683 
H     9.6274672    0.9558741   -2.9298266 
N     7.5230686   -0.3425994   -1.6910237 
C     6.1331555   -0.6911385   -1.6533267 
H     8.2912361   -0.5856459   -1.0246512 
H     5.6638449   -1.2715934   -0.8618760 
