48
Energy =
C     2.1427520    8.1200457   -1.3345709 
C     3.1400302    7.2063479   -1.1957914 
C     0.8722499    7.7125846   -1.6100440 
C     0.6084412    6.3931538   -1.7489216 
C     1.6064744    5.4880296   -1.6092997 
C     2.8716674    5.8772549   -1.3196487 
H     4.1507006    7.5484896   -0.9883849 
H    -0.4028058    6.0708166   -1.9735679 
H     1.4814588    4.3202747   -1.6993977 
H     2.3641732    9.1770712   -1.2292459 
C     3.9809069    4.8359672   -1.2182148 
C     3.5457429    3.4910055   -0.5475952 
H     4.8265897    5.2613297   -0.6347157 
H     4.3675198    4.6352828   -2.2485040 
C     2.5785752    2.6655228   -1.4333571 
O    -0.1747092    8.6266179   -1.7539226 
H     0.1048435    9.5958306   -1.6490444 
O     1.3487802    3.2319187   -1.7879320 
N     4.7406357    2.7349329   -0.1291569 
H     2.9480960    3.7245392    0.3656170 
H     5.5003861    2.8121769   -0.8476122 
H     5.1259014    3.1538815    0.7503583 
N     2.7929389    1.2817815   -1.7718154 
C     4.0077922    1.0282117   -2.5966946 
H     1.9426306    1.0236706   -2.3179470 
C     4.4891595    2.2073494   -3.4497109 
O     3.5823275    3.0385672   -4.0897947 
O     5.8451802    2.5062121   -3.5777725 
H     6.4366209    1.7951137   -3.1725742 
C     3.8614768   -0.2700402   -3.4314422 
H     4.8274832    0.8137643   -1.8800742 
C     2.8613218   -0.1666130   -4.5692356 
H     3.5614975   -1.0981285   -2.7518135 
H     4.8531376   -0.5570214   -3.8441721 
C     3.0860032    0.2943126   -5.8124198 
C     4.2244227    0.7782469   -6.3740827 
C     4.1866098    1.1786287   -7.6772823 
C     3.0272675    1.0845672   -8.3955754 
C     1.8980227    0.5899629   -7.8144517 
C     1.9592698    0.2042163   -6.5225740 
H     5.1455090    0.8643517   -5.8061355 
H     5.0817976    1.5830128   -8.1430811 
H     3.0046411    1.4102184   -9.4322820 
H     0.9699309    0.5089781   -8.3696820 
N     0.9071250   -0.3464619   -5.7433281 
C     1.5762847   -0.5601257   -4.4942677 
H    -0.0815368   -0.5527851   -6.0143507 
H     1.1045867   -0.9865957   -3.6123041 
