48
Energy =
C    -0.9793636   -2.8818119   -1.3125602 
C    -0.3509669   -2.3407818   -0.2385930 
C    -1.5558685   -2.0767170   -2.2442212 
C    -1.4972856   -0.7336643   -2.0956781 
C    -0.8754193   -0.1874156   -1.0205393 
C    -0.3029749   -0.9892818   -0.0807010 
H     0.1134915   -2.9968252    0.4932111 
H    -1.9516742   -0.1009740   -2.8503849 
H    -0.8330473    0.8951526   -0.9223351 
H    -1.0148822   -3.9598615   -1.4268260 
C     0.4259226   -0.3863041    1.1010628 
C     1.9198399   -0.1576619    0.7831699 
H     0.3267969   -1.0611770    1.9794829 
H    -0.0496933    0.5766629    1.3983311 
C     2.1096959    0.9167134   -0.2784699 
O    -2.2045030   -2.6035569   -3.3660332 
H    -2.2382991   -3.6171727   -3.3851797 
O     1.5196198    2.1663885   -0.1121308 
N     2.6508095    0.1922620    2.0107376 
H     2.3471316   -1.1030893    0.3745583 
H     2.2384266    1.0619094    2.4313195 
H     2.5489271   -0.5736394    2.7179692 
N     2.7118726    0.5923099   -1.5389901 
C     4.1837228    0.4593327   -1.4197710 
H     2.4876665    1.3908926   -2.1814399 
C     4.8997664    1.8065056   -1.2549929 
O     5.3686176    2.4941444   -2.3661634 
O     5.0985085    2.3725840    0.0030567 
H     4.6276594    1.8621961    0.7367266 
C     4.7214400   -0.3788547   -2.6090623 
H     4.4501462   -0.1206915   -0.5049227 
C     4.1593718    0.0318973   -3.9586817 
H     4.4793953   -1.4495591   -2.4343696 
H     5.8332781   -0.3213154   -2.6386617 
C     3.0159653   -0.3992505   -4.5197130 
C     2.0946846   -1.2835112   -4.0548826 
C     1.0041351   -1.5501101   -4.8290419 
C     0.8474986   -0.9334422   -6.0386291 
C     1.7827599   -0.0477438   -6.4841218 
C     2.8556562    0.1963683   -5.7029054 
H     2.2087538   -1.7659775   -3.0889929 
H     0.2527902   -2.2549990   -4.4835687 
H    -0.0281256   -1.1494529   -6.6458344 
H     1.6725876    0.4520524   -7.4403498 
N     3.9319151    1.0808174   -5.9774668 
C     4.7306637    0.9160948   -4.7963449 
H     4.0987891    1.6814411   -6.8174747 
H     5.6590544    1.4513625   -4.5980994 
