48
 energy: -9.014871774517 gnorm: 0.000786383043 xtb: 6.6.0 (2ccbbd7)
C            7.51708753673522        1.49800860736600        1.61396917642653
C            6.34551490063695        2.25939762990162        1.66865837610002
C            7.61088273149318        0.33537307836419        0.80755472225070
C            6.57032732313674        0.01827415472804       -0.02155958841531
C            5.40832539848795        0.92402816471940       -0.16533600556878
C            5.27802599426465        1.98696952792183        0.86941027567836
H            6.26371361645708        3.04655990931131        2.39860807932992
H            6.62520556658503       -0.88197991106298       -0.60550691170158
H            5.10968284713918        1.20109748909875       -1.34950776053261
H            8.34373815750661        1.74615814575669        2.25403503314712
C            3.92689099423212        2.58086026475514        1.12264814562118
C            2.87146678795456        1.53115831194630        1.54366930553021
H            3.42850296720433        3.08380502321232        0.11330907433551
H            4.01735279775794        3.37720343090198        1.86737889624926
C            1.97270023748959        1.07677409476218        0.39926239328355
O            8.71853405309799       -0.48995712056002        0.85830073378989
H            9.38319927379394       -0.12406892324667        1.48071822282122
O            0.90098687178238        0.58686279286170        0.69875201028682
N            3.44658558462585        0.37822592753960        2.22170367858471
H            2.18535322586686        1.99844293987968        2.27081210496199
H            3.88204250813325       -0.24613151521390        1.55605370635469
H            4.15032553872754        0.66567722586984        2.89109485628632
N            2.32616629866987        1.20217327399905       -0.93747305225645
C            3.74086127460174        1.18485321772055       -1.45654019672774
H            1.62612112285658        0.97003189413504       -1.63604589546520
C            3.99317227845715        2.64922297752411       -1.87992168653381
O            4.38530096862439        2.90343527323518       -2.99537994076570
O            3.80944137620126        3.59110809612668       -0.82192497237746
H            2.81106169295822        3.61891307521394       -0.25929541807133
C            3.75948391682715        0.21508109658200       -2.69202040148155
H            4.25610828132539        0.51866192124644       -0.44032985776462
C            4.35020706509082       -1.11310234852927       -2.35510851382704
H            4.32027804186429        0.67326487214130       -3.51512982711110
H            2.74708692595891        0.07611596282048       -3.08036454666342
C            3.90825736686268       -1.99888884026348       -1.32705271152106
C            2.83600125400563       -1.95586239400314       -0.42008302258231
C            2.69896433790668       -2.96678141726427        0.48831660990727
C            3.61025095184002       -4.03423197875491        0.52731552384879
C            4.66834625931651       -4.09376146467687       -0.33787087622057
C            4.82537373902133       -3.06612174847963       -1.27654324339383
H            2.16414802920852       -1.11784803563828       -0.42145228442252
H            1.88441463891307       -2.93822270051413        1.19324446224209
H            3.47526294164624       -4.81561045872487        1.25670454349837
H            5.37677463374593       -4.90192929576941       -0.30849890071274
N            5.79159928302133       -2.82867660202452       -2.23800122442255
C            5.49487841826524       -1.65536705046602       -2.88611949546977
H            6.59087561922346       -3.43701529537692       -2.42277761699996
H            6.09420112523743       -1.21282346013165       -3.66537985452319
