48
Energy =
C    -3.6258516    1.0108070   -2.8159381 
C    -2.6772506    1.9475372   -2.5631357 
C    -3.2876700   -0.1580561   -3.4229653 
C    -2.0005419   -0.3814931   -3.7727659 
C    -1.0473949    0.5514445   -3.5219939 
C    -1.3814593    1.7245901   -2.9180048 
H    -2.9633277    2.8740265   -2.0722101 
H    -1.7440947   -1.3181168   -4.2555370 
H    -0.0180307    0.3524593   -3.8084834 
H    -4.6549929    1.1985674   -2.5297133 
C    -0.3153742    2.7560573   -2.6224076 
C     0.5102820    2.4008793   -1.3611651 
H    -0.7637609    3.7687179   -2.5079731 
H     0.3619035    2.8294790   -3.5034979 
C     1.7239649    3.3027708   -1.1995694 
O    -4.2403022   -1.1449136   -3.6965796 
H    -5.1812403   -0.9002598   -3.4078553 
O     1.8805538    4.4368602   -1.9921245 
N    -0.3317162    2.4524962   -0.1550014 
H     0.9178142    1.3705097   -1.4754342 
H    -0.8327016    3.3714280   -0.1016829 
H    -1.0560398    1.6974273   -0.1958311 
N     2.7465084    2.9575037   -0.2529277 
C     4.0899007    2.5288829   -0.7064766 
H     2.5055278    3.0092503    0.7633078 
C     5.1447183    3.6013864   -0.4318232 
O     6.1789209    3.3192701    0.4537347 
O     5.1369013    4.8403127   -1.0736235 
H     4.2882195    4.9706953   -1.6052505 
C     4.0965785    2.0451302   -2.1815469 
H     4.3904339    1.6638792   -0.0724409 
C     5.4300665    1.4393630   -2.5589735 
H     3.8753127    2.8927158   -2.8683656 
H     3.2969707    1.2903097   -2.3384422 
C     5.8283717    0.1746977   -2.3501987 
C     5.1590699   -0.8688165   -1.7959266 
C     5.8027309   -2.0665568   -1.6873231 
C     7.0913686   -2.2006109   -2.1256022 
C     7.7448179   -1.1370664   -2.6742314 
C     7.0857031    0.0363395   -2.7736401 
H     4.1387036   -0.7626142   -1.4408004 
H     5.2901839   -2.9182825   -1.2465326 
H     7.5989382   -3.1574931   -2.0322269 
H     8.7692269   -1.2240979   -3.0201435 
N     7.5849808    1.2611682   -3.2920865 
C     6.4514232    2.1208384   -3.1072324 
H     8.5230686    1.4739500   -3.7029490 
H     6.4363640    3.1860390   -3.3388462 
