48
Energy =
C    -1.6117958    1.4950058    2.6197907 
C    -0.2604729    1.5857114    2.7022362 
C    -2.2643473    1.9839505    1.5316701 
C    -1.5588358    2.5610965    0.5326419 
C    -0.2071935    2.6530134    0.6088067 
C     0.4520510    2.1633476    1.6954859 
H     0.2475714    1.1896628    3.5771280 
H    -2.0909576    2.9487176   -0.3294121 
H     0.3401491    3.1219159   -0.2060845 
H    -2.1685992    1.0295031    3.4257631 
C     1.9618079    2.2544111    1.7803653 
C     2.6481423    0.8722997    1.6654990 
H     2.2391608    2.7226998    2.7497359 
H     2.3544973    2.9303606    0.9858918 
C     2.2585767    0.1243834    0.3980915 
O    -3.6561597    1.9084823    1.4161073 
H    -4.1111869    1.4512032    2.1986884 
O     1.5198277   -1.0482196    0.4980095 
N     4.1097881    1.0348188    1.7699106 
H     2.3008547    0.2211201    2.5027507 
H     4.4358121    1.8457968    1.1904482 
H     4.3577355    1.2655938    2.7611797 
N     2.3472835    0.7522627   -0.8826916 
C     3.6742948    0.8533865   -1.5124174 
H     1.4673686    1.0814748   -1.3381164 
C     4.0643027    2.3123586   -1.6849717 
O     3.0814258    3.2697835   -1.9063836 
O     5.3993182    2.7159663   -1.6639650 
H     6.0378509    1.9430759   -1.5485701 
C     3.6419942    0.1209359   -2.8695067 
H     4.4573094    0.3939848   -0.8623198 
C     3.7497601   -1.3775527   -2.6836476 
H     4.4619095    0.4810595   -3.5281042 
H     2.6984237    0.3621986   -3.4094069 
C     4.8565257   -2.1302346   -2.8076917 
C     6.1233244   -1.7739129   -3.1477684 
C     7.0810354   -2.7443525   -3.1893215 
C     6.7651779   -4.0403189   -2.8893475 
C     5.4894785   -4.3740333   -2.5445787 
C     4.5586882   -3.3976104   -2.5145701 
H     6.3842135   -0.7467424   -3.3802068 
H     8.1021717   -2.4857572   -3.4595185 
H     7.5348356   -4.8074415   -2.9214267 
H     5.2233174   -5.3957610   -2.2957772 
N     3.1899967   -3.5298756   -2.1622780 
C     2.7404440   -2.1734068   -2.2871616 
H     2.6511649   -4.3860483   -1.8962405 
H     1.7388347   -1.8288866   -2.0287070 
