48
Energy =
C    -0.9127704    0.0963985   -5.1184991 
C    -1.0318416    0.4878083   -3.8237113 
C    -0.4534463   -1.1487420   -5.4160144 
C    -0.1256134   -1.9947750   -4.4169954 
C    -0.2294575   -1.6064145   -3.1220632 
C    -0.6846112   -0.3608210   -2.8169053 
H    -1.3826401    1.4929329   -3.6010807 
H     0.2319935   -2.9826642   -4.6740023 
H     0.0630750   -2.2944684   -2.3336739 
H    -1.1763711    0.7854669   -5.9137045 
C    -0.7379168    0.0920208   -1.3747487 
C     0.6371697    0.6178120   -0.8988596 
H    -1.0566901   -0.7651827   -0.7414126 
H    -1.5150231    0.8791668   -1.2404174 
C     0.9817584    1.9558351   -1.5350495 
O    -0.3024372   -1.5850096   -6.7363700 
H    -0.5690444   -0.8896014   -7.4259870 
O     0.3235817    3.1117741   -1.1246841 
N     0.6566307    0.7141483    0.5692235 
H     1.4336448   -0.0942545   -1.2132507 
H    -0.1186491    1.3440595    0.8906883 
H     0.4829288   -0.2299379    0.9870918 
N     1.7958792    2.0064598   -2.7129386 
C     3.0625375    2.7545340   -2.6362377 
H     1.5169816    1.4591889   -3.5582242 
C     3.1025291    3.8920742   -3.6556810 
O     2.3869114    3.7943824   -4.8446038 
O     3.9475963    4.9897747   -3.4798632 
H     4.4119714    4.9743727   -2.5837491 
C     4.2517222    1.7800779   -2.8090387 
H     3.1609297    3.2389721   -1.6368161 
C     4.1377535    0.9162502   -4.0538251 
H     4.3222196    1.1442225   -1.9025818 
H     5.2062086    2.3504675   -2.8528408 
C     3.8031670   -0.3859364   -4.1119346 
C     3.5339290   -1.2686616   -3.1126608 
C     3.2234659   -2.5538384   -3.4471125 
C     3.1785952   -2.9341848   -4.7597002 
C     3.4420647   -2.0314168   -5.7453791 
C     3.7571669   -0.7687466   -5.3900990 
H     3.5710685   -0.9756937   -2.0689703 
H     3.0115939   -3.2794188   -2.6649027 
H     2.9284916   -3.9591654   -5.0207212 
H     3.4008106   -2.3127440   -6.7917662 
N     4.0763403    0.3090335   -6.2577537 
C     4.3111266    1.3615879   -5.3123046 
H     4.1379745    0.3259557   -7.3018971 
H     4.5560175    2.3881557   -5.5829106 
