48
Energy =
C    -4.1800046    0.6985522   -3.1710303 
C    -2.8267075    0.6019700   -3.1384614 
C    -4.8081126    1.7192844   -2.5283929 
C    -4.0761893    2.6369121   -1.8566184 
C    -2.7226311    2.5452111   -1.8204563 
C    -2.0891782    1.5277642   -2.4657829 
H    -2.3382684   -0.2218030   -3.6534460 
H    -4.5891706    3.4450761   -1.3469782 
H    -2.1534037    3.2900121   -1.2706440 
H    -4.7583649   -0.0435099   -3.7107285 
C    -0.5828046    1.4067896   -2.4138487 
C    -0.1216271    0.3517688   -1.3815316 
H    -0.1125380    2.3908245   -2.1880940 
H    -0.2098691    1.1254667   -3.4251964 
C     1.3689518    0.0924532   -1.5098223 
O    -6.2009857    1.8470517   -2.5406680 
H    -6.6758870    1.1225410   -3.0678624 
O     1.7537306   -1.0381170   -2.2121512 
N    -0.4812759    0.7635091   -0.0109773 
H    -0.6073267   -0.6271424   -1.6144144 
H    -0.2804452    1.7814379    0.1333481 
H    -1.5133673    0.6400952    0.1242786 
N     2.2916521    1.1518058   -1.1720231 
C     3.7660633    1.0618059   -1.3811913 
H     2.1185066    1.3553093   -0.1614645 
C     4.2652031    2.4533882   -1.7730555 
O     3.5478949    3.2065336   -2.6957636 
O     5.4751956    2.9639042   -1.2959694 
H     5.9568288    2.3220734   -0.6843899 
C     4.2716292    0.0551344   -2.4537127 
H     4.2585500    0.8746288   -0.4230023 
C     4.3916741   -1.4491854   -2.1649912 
H     5.2906508    0.3630222   -2.7804266 
H     3.6183120    0.1927647   -3.3465239 
C     4.5474881   -2.1749440   -1.0216639 
C     4.5960360   -1.8176048    0.2956246 
C     4.7681603   -2.7861553    1.2399970 
C     4.8924593   -4.0929932    0.8764988 
C     4.8453954   -4.4425567   -0.4347387 
C     4.6724554   -3.4708232   -1.3544071 
H     4.4983342   -0.8119723    0.6453771 
H     4.8034642   -2.5152243    2.2928600 
H     5.0280112   -4.8581874    1.6369105 
H     4.9435204   -5.4784912   -0.7416049 
N     4.6145111   -3.6585543   -2.7554044 
C     4.4370783   -2.3146496   -3.1995720 
H     4.6933762   -4.5400068   -3.3127938 
H     4.3500859   -2.0342602   -4.2469838 
