48
Energy =
C    -2.2833821   -1.8197740   -0.8241602 
C    -1.0734805   -1.2051392   -0.8344407 
C    -3.0871391   -1.7290571    0.2691641 
C    -2.6743445   -1.0212426    1.3450743 
C    -1.4657229   -0.4042556    1.3402708 
C    -0.6551545   -0.4968297    0.2507310 
H    -0.4461690   -1.2803312   -1.7187380 
H    -3.3255683   -0.9536475    2.2095930 
H    -1.1535614    0.1639944    2.2130264 
H    -2.6074443   -2.3819651   -1.6932568 
C     0.6842716    0.2048813    0.2390283 
C     0.5479471    1.7121102   -0.0724063 
H     1.3657097   -0.2708063   -0.4960398 
H     1.1650684    0.0738044    1.2359095 
C     1.8533815    2.4410401    0.1933758 
O    -4.3394249   -2.3506451    0.3122750 
H    -4.5761741   -2.8589033   -0.5326527 
O     2.1920469    2.7692251    1.5023286 
N     0.0753030    1.9228108   -1.4532798 
H    -0.1790843    2.1727054    0.6382520 
H     0.6632538    1.3777551   -2.1276877 
H    -0.9104207    1.5812130   -1.5456929 
N     2.8210736    2.6388960   -0.8437056 
C     4.1840746    2.1359707   -0.6093338 
H     2.5346736    3.1103033   -1.7320379 
C     5.2173064    3.1129819   -1.1154417 
O     5.6898994    2.8187660   -2.3664087 
O     5.6750108    4.2236724   -0.4194389 
H     5.1353694    4.3650681    0.4236857 
C     4.3651907    0.7539824   -1.3137182 
H     4.3931357    2.0228544    0.4794672 
C     4.0143607    0.7079135   -2.8133819 
H     3.7538924    0.0097433   -0.7623388 
H     5.4203127    0.4188062   -1.2015964 
C     4.5786323    1.3623888   -3.8799049 
C     5.5858033    2.3684749   -3.9457558 
C     5.8776051    2.8367784   -5.2038682 
C     5.2319712    2.3786498   -6.3126217 
C     4.2674326    1.4323323   -6.2090229 
C     3.9625116    0.9474320   -4.9926327 
H     6.4129125    3.0352668   -3.1379425 
H     6.6408742    3.6027313   -5.3243627 
H     5.4876285    2.7803641   -7.2902336 
H     3.7429943    1.0726150   -7.0881088 
N     2.9645349   -0.0207172   -4.7104355 
C     3.0650364   -0.1174116   -3.2895791 
H     2.3284842   -0.5265206   -5.3687295 
H     2.4650079   -0.7923945   -2.6856414 
