48
Energy =
C    -0.1605947   -4.0562891    1.6249462 
C    -0.4571374   -3.2562135    0.5660829 
C     1.0183461   -3.9036278    2.2912272 
C     1.8929367   -2.9517760    1.8919272 
C     1.5909372   -2.1599584    0.8347396 
C     0.4187487   -2.2911140    0.1746356 
H    -1.3956358   -3.3977160    0.0368679 
H     2.8295618   -2.8314219    2.4246687 
H     2.2644520   -1.2937369    0.4140645 
H    -0.8654278   -4.8204900    1.9342698 
C     0.1498484   -1.4175215   -1.0410762 
C     0.5793914    0.0749493   -0.8736298 
H    -0.9370885   -1.4491232   -1.2747937 
H     0.6755300   -1.8568941   -1.9146371 
C     2.1092221    0.2940585   -0.8144829 
O     1.3534888   -4.7100233    3.3833125 
H     0.6449263   -5.3951140    3.6214263 
O     2.9065252   -0.4876238    0.0299582 
N    -0.0329956    0.8645075   -1.9567714 
H     0.1984891    0.4519976    0.1055772 
H     0.2345708    0.4628250   -2.8886649 
H    -1.0777376    0.8302296   -1.8837431 
N     2.7023828    1.4433944   -1.4376868 
C     4.1643307    1.6225250   -1.3265697 
H     2.0888935    2.1509856   -1.9051733 
C     4.5811637    3.0696698   -1.5639257 
O     3.8494087    3.8752316   -2.4281842 
O     5.7504384    3.5885253   -1.0077717 
H     6.2291088    2.9231178   -0.4192105 
C     4.8919628    0.6601184   -2.2957921 
H     4.4813258    1.3929067   -0.2837121 
C     4.2907801    0.6689511   -3.6883745 
H     4.8608357   -0.3641313   -1.8680606 
H     5.9710392    0.9237108   -2.3626880 
C     3.4727680   -0.2544910   -4.2235296 
C     3.0036154   -1.4182071   -3.7004401 
C     2.1698118   -2.1830324   -4.4620072 
C     1.8159023   -1.7778027   -5.7185417 
C     2.2957645   -0.6059641   -6.2225625 
C     3.1229444    0.1312052   -5.4523352 
H     3.2748576   -1.7441359   -2.7011332 
H     1.7856893   -3.1207347   -4.0677058 
H     1.1505619   -2.3926256   -6.3194952 
H     2.0241356   -0.2686912   -7.2171212 
N     3.7200123    1.3754811   -5.7856682 
C     4.4555155    1.6573616   -4.5861668 
H     3.6482438    1.9312626   -6.6690361 
H     5.0269654    2.5695179   -4.4107561 
