48
Energy =
C     1.2916883    5.8697986   -1.1482955 
C     0.8899488    4.8559005   -1.9584199 
C     0.4041069    6.4691411   -0.3115565 
C    -0.8801601    6.0479212   -0.2879861 
C    -1.2862452    5.0317050   -1.0904078 
C    -0.4028415    4.4289689   -1.9335347 
H     1.6147284    4.3774909   -2.6164096 
H    -1.5774173    6.5321255    0.3868121 
H    -2.3213069    4.7036942   -1.0477511 
H     2.3270098    6.1943215   -1.1630731 
C    -0.8534265    3.2829693   -2.8182392 
C    -0.4671187    1.8837780   -2.2718214 
H    -0.4271469    3.4135124   -3.8390952 
H    -1.9564116    3.3186907   -2.9579823 
C     1.0331014    1.6266856   -2.3166451 
O     0.7837968    7.5194932    0.5301462 
H     1.7738744    7.7365121    0.4954860 
O     1.7514996    2.0302460   -3.4388672 
N    -1.0308630    1.6695463   -0.9272374 
H    -0.9030837    1.1229154   -2.9580760 
H    -0.6195662    2.3591618   -0.2531995 
H    -2.0635160    1.8385882   -0.9496554 
N     1.6304935    0.6733979   -1.4263097 
C     2.8286723    1.0727918   -0.6630544 
H     1.1641350   -0.2504214   -1.2856576 
C     2.6909094    2.4657966   -0.0434414 
O     3.4219132    3.5384268   -0.5473464 
O     1.8137174    2.6982009    1.0169790 
H     1.3197685    1.8558513    1.2777525 
C     4.0868564    0.9265897   -1.5467739 
H     2.9411184    0.3759369    0.1965933 
C     4.2608338   -0.4951979   -2.0297451 
H     4.9927306    1.2417831   -0.9849018 
H     4.0136189    1.6066522   -2.4249307 
C     4.8243263   -1.5116681   -1.3593532 
C     5.3998500   -1.5309455   -0.1297146 
C     5.8984282   -2.7132799    0.3335163 
C     5.8124911   -3.8453709   -0.4292643 
C     5.2266031   -3.8021605   -1.6597724 
C     4.7430821   -2.6203683   -2.0966724 
H     5.4655114   -0.6332419    0.4771538 
H     6.3656977   -2.7561925    1.3143838 
H     6.2109957   -4.7841943   -0.0530889 
H     5.1464482   -4.6911095   -2.2760593 
N     4.0884354   -2.3631794   -3.3309965 
C     3.8015255   -0.9637873   -3.2027304 
H     3.8714778   -3.0154801   -4.1186149 
H     3.2594515   -0.3720966   -3.9388889 
