48
Energy =
C     3.1770981    5.1549207    1.3305709 
C     2.2373584    4.5422722    0.5654672 
C     3.9669443    6.1246464    0.7975024 
C     3.8189677    6.4665274   -0.5020885 
C     2.8761704    5.8637517   -1.2692217 
C     2.0732732    4.8992981   -0.7397250 
H     1.6265718    3.7544575    1.0023680 
H     4.4730426    7.2211318   -0.9240119 
H     2.7893167    6.1419287   -2.3156710 
H     3.2999703    4.8640653    2.3684419 
C     1.0194007    4.2214344   -1.5966153 
C     1.5924409    3.0661104   -2.4549786 
H     0.5532365    4.9784210   -2.2644191 
H     0.1975495    3.8305763   -0.9550881 
C     2.2432295    1.9860689   -1.6015730 
O     4.9266066    6.7914074    1.5662879 
H     5.0328543    6.4189975    2.5031943 
O     1.6544914    1.6235893   -0.3931305 
N     0.5243386    2.4978361   -3.2990173 
H     2.3994915    3.4614927   -3.1120526 
H    -0.2367456    2.1012675   -2.6953066 
H     0.1027992    3.2399736   -3.9054857 
N     3.2215231    1.0989567   -2.1603081 
C     4.5836655    1.5892364   -2.4869727 
H     2.8921620    0.1426714   -2.4169606 
C     4.8770442    2.9908909   -1.9379604 
O     4.7180553    4.1084068   -2.7506445 
O     5.1719419    3.1961046   -0.5941730 
H     5.1382184    2.3355328   -0.0675651 
C     4.9096385    1.4570527   -4.0118679 
H     5.3008558    0.9269967   -1.9542710 
C     3.8003869    0.8803990   -4.8664560 
H     5.8186647    0.8299000   -4.1394462 
H     5.1998413    2.4401788   -4.4462643 
C     3.5236213   -0.4185880   -5.0580983 
C     4.1373991   -1.5216580   -4.5579439 
C     3.6469050   -2.7470958   -4.9013762 
C     2.5622716   -2.8500630   -5.7282080 
C     1.9609234   -1.7277033   -6.2160567 
C     2.4657993   -0.5269621   -5.8631312 
H     4.9941273   -1.4396272   -3.8957639 
H     4.1193284   -3.6464852   -4.5140552 
H     2.1762365   -3.8302422   -5.9960624 
H     1.0977373   -1.7913518   -6.8696392 
N     1.9864457    0.7537803   -6.2479910 
C     2.9055175    1.6093029   -5.5552468 
H     1.1857949    1.0028145   -6.8721271 
H     2.8767599    2.6955716   -5.5834120 
