48
Energy =
C     2.1484159    6.0992024    3.0096917 
C     2.0569565    4.9308480    2.3256870 
C     1.1970510    7.0584221    2.8545395 
C     0.1602653    6.8412356    2.0137846 
C     0.0642042    5.6752211    1.3258760 
C     1.0120449    4.7104329    1.4811167 
H     2.8280666    4.1754966    2.4571635 
H    -0.5907834    7.6149099    1.8981466 
H    -0.7749162    5.5239404    0.6521650 
H     2.9856114    6.2645648    3.6793035 
C     0.9225908    3.4150569    0.7057067 
C     1.9283345    3.3656676   -0.4696773 
H    -0.1106433    3.2494630    0.3233206 
H     1.1244260    2.5724919    1.4045186 
C     1.9294770    1.9919563   -1.1180233 
O     1.2611876    8.2738266    3.5439382 
H     2.0701507    8.3598457    4.1495879 
O     0.7902978    1.5782697   -1.7998109 
N     1.6211622    4.4027374   -1.4675236 
H     2.9555682    3.5398693   -0.0777010 
H     0.6212537    4.3232953   -1.7706444 
H     1.7591144    5.3513593   -1.0473069 
N     2.8220794    0.9757292   -0.6394016 
C     4.1419350    0.8335713   -1.2843724 
H     2.5324528    0.4051534    0.1856902 
C     5.0857929    1.9775061   -0.9079135 
O     5.0707943    3.1619555   -1.6354655 
O     5.9055025    1.9027418    0.2194421 
H     5.8057123    1.0237683    0.7050537 
C     3.9671728    0.6547942   -2.8112387 
H     4.6043184   -0.1011024   -0.8962840 
C     5.2389548    0.1652195   -3.4715751 
H     3.6127058    1.5990136   -3.2794611 
H     3.1645133   -0.0943498   -2.9961188 
C     6.1258837    0.8864704   -4.1790081 
C     6.1185971    2.2035736   -4.5119377 
C     7.1572597    2.6931129   -5.2479116 
C     8.1757665    1.8694952   -5.6393016 
C     8.1620577    0.5504612   -5.2967254 
C     7.1243529    0.0896317   -4.5670948 
H     5.3149088    2.8648467   -4.2047719 
H     7.1756289    3.7453870   -5.5214982 
H     9.0005920    2.2684492   -6.2242826 
H     8.9625937   -0.1163106   -5.5984159 
N     6.9231646   -1.2398858   -4.1095971 
C     5.6816934   -1.1032279   -3.4083466 
H     7.5201329   -2.0871326   -4.2477108 
H     5.1757688   -1.9163805   -2.8937149 
