48
Energy =
C    -1.6669964   -3.1442664   -3.0472945 
C    -1.6523776   -2.0732206   -2.2134099 
C    -0.5165088   -3.8186113   -3.3147761 
C     0.6401408   -3.4204386   -2.7393773 
C     0.6603111   -2.3514590   -1.9051919 
C    -0.4863868   -1.6658511   -1.6399154 
H    -2.5777095   -1.5383229   -2.0177772 
H     1.5513015   -3.9642475   -2.9605132 
H     1.6018954   -2.0374429   -1.4648835 
H    -2.6000313   -3.4556401   -3.5042594 
C    -0.4555490   -0.4427659   -0.7435865 
C    -0.1837636    0.8746443   -1.5144921 
H     0.3257133   -0.5745824    0.0371985 
H    -1.4159300   -0.3566386   -0.1895351 
C     1.1351228    0.8305583   -2.2847329 
O    -0.4948470   -4.9210579   -4.1757678 
H    -1.4020757   -5.1539311   -4.5646863 
O     1.1382694    0.2447552   -3.5420742 
N    -1.3185033    1.2232807   -2.3862936 
H    -0.0809494    1.6917040   -0.7656432 
H    -1.3695790    0.5499536   -3.1886643 
H    -2.2174322    1.1609910   -1.8555366 
N     2.3684636    1.1107172   -1.5846082 
C     3.7470648    0.8974679   -2.0968086 
H     2.2774317    1.3430794   -0.5699007 
C     4.5100633    2.2092055   -2.2016028 
O     3.8285019    3.4033417   -2.3966816 
O     5.9056681    2.2361805   -2.2134561 
H     6.3099283    1.3281954   -2.0375911 
C     3.9072499   -0.0273884   -3.3430022 
H     4.2741321    0.3501313   -1.2842170 
C     3.5894013    0.5526375   -4.7264463 
H     3.3015673   -0.9347047   -3.1507794 
H     4.9598231   -0.3817911   -3.3838738 
C     2.9669662   -0.1038520   -5.7309847 
C     2.4088861   -1.3461653   -5.7554484 
C     1.8475085   -1.7877286   -6.9164074 
C     1.8579756   -0.9992997   -8.0317274 
C     2.4309470    0.2358828   -7.9927064 
C     2.9736957    0.6544929   -6.8299355 
H     2.3836392   -1.9814380   -4.8779392 
H     1.3838871   -2.7714489   -6.9506467 
H     1.4068599   -1.3593192   -8.9533271 
H     2.4541210    0.8717228   -8.8714175 
N     3.6441778    1.8817876   -6.5995475 
C     4.0299836    1.7300080   -5.2260693 
H     3.8276184    2.6734755   -7.2591621 
H     4.6529890    2.4535639   -4.7083040 
