48
Energy =
C     2.2100381   -2.6021167    1.5646293 
C     1.3622394   -1.6168802    1.1756225 
C     2.7185402   -3.4679215    0.6497562 
C     2.3665740   -3.3490673   -0.6492177 
C     1.5198168   -2.3659120   -1.0453384 
C     1.0285873   -1.4714987   -0.1404376 
H     0.9680003   -0.9477023    1.9323095 
H     2.7716734   -4.0530719   -1.3685735 
H     1.2503659   -2.2961506   -2.0960865 
H     2.4796583   -2.6949175    2.6113311 
C     0.0736973   -0.3828291   -0.6116835 
C     0.2716297    1.0040748    0.0521264 
H    -0.9646691   -0.7295531   -0.4187372 
H     0.1682008   -0.2533657   -1.7130799 
C     1.7123078    1.4977051   -0.0077158 
O     3.5998396   -4.4893543    1.0168874 
H     3.8152522   -4.5135008    2.0079831 
O     2.4757128    1.4939628    1.1563219 
N    -0.6657939    1.9755873   -0.5400293 
H     0.0387082    0.9282909    1.1389871 
H    -0.6355090    1.9406193   -1.5863303 
H    -1.6452588    1.7326774   -0.2574843 
N     2.2615718    2.0765340   -1.2012056 
C     3.6746017    1.7873565   -1.5124744 
H     1.6320728    2.6043583   -1.8474818 
C     4.2546837    2.8473440   -2.4442285 
O     3.5119223    3.2726670   -3.5405744 
O     5.5482677    3.3456810   -2.2818190 
H     6.0310330    2.9271009   -1.5006231 
C     3.7719464    0.3803442   -2.1331936 
H     4.2720040    1.8265745   -0.5715323 
C     5.2051670   -0.0840924   -2.2606700 
H     3.2558621    0.3552764   -3.1183332 
H     3.2395936   -0.3353389   -1.4778533 
C     6.0213156    0.0749421   -3.3154552 
C     5.7878127    0.6540207   -4.5214305 
C     6.8048780    0.6935409   -5.4291182 
C     8.0256789    0.1588099   -5.1230879 
C     8.2375816   -0.4170856   -3.9057597 
C     7.2159667   -0.4432143   -3.0242574 
H     4.8235627    1.0896299   -4.7661979 
H     6.6448482    1.1602151   -6.3982562 
H     8.8320192    0.1985764   -5.8511545 
H     9.2013057   -0.8411869   -3.6451641 
N     7.2303332   -0.9815821   -1.7095472 
C     5.8911831   -0.7026495   -1.2833814 
H     8.0080958   -1.4520206   -1.1922261 
H     5.4937060   -0.9542090   -0.3020324 
