48
Energy =
C    -3.6977133    2.1910686   -3.5261878 
C    -2.5052024    2.7361121   -3.1757164 
C    -3.8161639    0.8446681   -3.6774687 
C    -2.7388673    0.0524072   -3.4755665 
C    -1.5441380    0.5918235   -3.1249001 
C    -1.4197166    1.9389330   -2.9759149 
H    -2.4278700    3.8135477   -3.0534420 
H    -2.8462924   -1.0196649   -3.5971471 
H    -0.6907739   -0.0615635   -2.9636982 
H    -4.5564645    2.8345670   -3.6836407 
C    -0.0916883    2.5380331   -2.5713354 
C     0.1968744    2.3719147   -1.0616583 
H    -0.0375890    3.6172636   -2.8395212 
H     0.7167738    2.0495402   -3.1584181 
C     1.6324318    2.7556240   -0.7566668 
O    -5.0305915    0.2509175   -4.0376132 
H    -5.7878736    0.9121477   -4.1703088 
O     2.0743058    3.8560307   -1.1173841 
N    -0.7326359    3.1777600   -0.2554974 
H     0.0824087    1.3002252   -0.7798604 
H    -0.6631593    4.1833630   -0.5424699 
H    -1.7155830    2.8618131   -0.4236219 
N     2.5590601    1.7791148   -0.2568077 
C     3.8627087    1.7995092   -0.9384671 
H     2.2895975    1.0986141    0.4890377 
C     4.0773759    3.1679745   -1.6001918 
O     5.2316548    3.4301689   -2.3299709 
O     3.2184483    4.0562271   -1.4775580 
H     2.8283741    4.2365560   -0.5750098 
C     3.8831310    0.6299420   -1.9441062 
H     4.6701464    1.6759607   -0.1846067 
C     5.2594125    0.3836157   -2.5243493 
H     3.1365866    0.8134154   -2.7457983 
H     3.5542087   -0.2972594   -1.4252127 
C     5.7097838    0.7428583   -3.7386809 
C     5.0830299    1.4103432   -4.7425727 
C     5.7756895    1.6517826   -5.8923625 
C     7.0689662    1.2275394   -6.0221458 
C     7.6791429    0.5618824   -5.0011013 
C     6.9739088    0.3359046   -3.8727706 
H     4.0631513    1.7664368   -4.6385013 
H     5.2991928    2.1933167   -6.7059301 
H     7.6152970    1.4286849   -6.9401694 
H     8.7062899    0.2239312   -5.0858743 
N     7.4222520   -0.3314635   -2.7012144 
C     6.2521202   -0.2527421   -1.8773622 
H     8.3515779   -0.7675180   -2.5017425 
H     6.1821613   -0.6554957   -0.8698396 
