48
Energy =
C    -0.7316879   -2.7923066   -7.0792007 
C    -0.5198540   -1.5414958   -6.5970599 
C    -0.7621616   -3.8553981   -6.2318841 
C    -0.5787252   -3.6588287   -4.9069571 
C    -0.3697250   -2.4102196   -4.4192439 
C    -0.3377171   -1.3410249   -5.2618722 
H    -0.4916182   -0.7030506   -7.2881932 
H    -0.5964458   -4.5152817   -4.2425182 
H    -0.2135526   -2.2752470   -3.3530385 
H    -0.8744330   -2.9396405   -8.1443410 
C    -0.0951313    0.0559660   -4.7238777 
C     1.4024761    0.4198017   -4.5723828 
H    -0.6056625    0.1716805   -3.7427977 
H    -0.5745519    0.8028641   -5.3946209 
C     2.1021290   -0.3970778   -3.4932244 
O    -0.9810151   -5.1568862   -6.6952697 
H    -1.0946176   -5.2205920   -7.7010268 
O     2.5063775   -1.7017298   -3.7570550 
N     2.1062840    0.3381019   -5.8639999 
H     1.4507941    1.4789802   -4.2276633 
H     2.1558807   -0.6595921   -6.1851688 
H     1.5900972    0.8862812   -6.5910488 
N     2.0200873    0.0111227   -2.1217075 
C     3.1401523    0.7779245   -1.5410535 
H     1.1553780   -0.2127260   -1.5817187 
C     3.3075801    2.1577044   -2.1750685 
O     2.8509569    3.2717177   -1.4822017 
O     3.9031723    2.3493773   -3.4218270 
H     4.1243469    1.4824460   -3.8895907 
C     4.4420947   -0.0586126   -1.5492658 
H     2.8859683    0.9966176   -0.4786294 
C     4.3629569   -1.2075719   -0.5679485 
H     5.3115464    0.5839827   -1.2868617 
H     4.6474446   -0.4575105   -2.5681645 
C     4.5452727   -1.1398658    0.7604167 
C     4.8590439   -0.0749382    1.5425620 
C     4.9836218   -0.2726596    2.8863851 
C     4.7938514   -1.5167561    3.4221680 
C     4.4774603   -2.5707585    2.6171016 
C     4.3609364   -2.3498956    1.2908998 
H     5.0074797    0.9148359    1.1197804 
H     5.2341212    0.5639712    3.5349107 
H     4.8942085   -1.6662193    4.4947157 
H     4.3209980   -3.5636178    3.0259568 
N     4.0317553   -3.2999543    0.2877717 
C     4.0477034   -2.4758620   -0.8864975 
H     3.8305568   -4.3229294    0.3772019 
H     3.8242957   -2.8321639   -1.8902160 
