48
Energy =
C     0.9751138    4.7555169    0.8068619 
C     0.9446192    3.5842949    0.1102352 
C    -0.1117775    5.5666624    0.8433999 
C    -1.2368682    5.2032737    0.1925709 
C    -1.2884166    4.0376039   -0.4970494 
C    -0.2080091    3.2074316   -0.5363627 
H     1.9472477    2.8435885    0.2054758 
H    -2.0964748    5.8636741    0.2235716 
H    -2.2025825    3.7834020   -1.0263844 
H     1.8771138    5.0403272    1.3329809 
C    -0.2670781    1.9531973   -1.3980679 
C     0.1616125    0.6255872   -0.7166371 
H     0.3423911    2.1406693   -2.3081572 
H    -1.3030294    1.8039247   -1.7749833 
C     1.6781380    0.4458294   -0.6539075 
O    -0.1030085    6.7756257    1.5492539 
H     0.7867464    7.0055253    1.9776895 
O     2.3312096    0.3911796    0.5785066 
N    -0.4883591    0.4747236    0.5964156 
H    -0.1840563   -0.2170840   -1.3580290 
H    -0.0565179    1.1357673    1.2841068 
H    -1.5026691    0.7214437    0.5240115 
N     2.4580646    0.2574390   -1.8522378 
C     3.6028391    1.1997455   -1.9162435 
H     1.8538250    0.3598946   -2.6993798 
C     3.2303548    2.5612232   -2.5210046 
O     3.4555360    2.8189325   -3.8711907 
O     2.6448818    3.5603931   -1.7327996 
H     2.2870164    3.1665238   -0.7022361 
C     4.7821618    0.5206454   -2.6621372 
H     3.9704099    1.4524989   -0.8998971 
C     4.9163298   -0.9708323   -2.3931068 
H     5.7373964    1.0259155   -2.4022763 
H     4.6453411    0.6620670   -3.7581939 
C     5.1048626   -1.5949651   -1.2139831 
C     5.2096159   -1.0909539    0.0430264 
C     5.3873488   -1.9581780    1.0816268 
C     5.4654647   -3.3030484    0.8523055 
C     5.3623739   -3.7891386   -0.4159811 
C     5.1816190   -2.9119972   -1.4254062 
H     5.1368997   -0.0300158    0.2372648 
H     5.4553575   -1.5785452    2.0989630 
H     5.6023382   -3.9889991    1.6848411 
H     5.4172042   -4.8540409   -0.6158571 
N     5.0461199   -3.2172280   -2.8042943 
C     4.8766938   -1.9079730   -3.3588510 
H     5.0698207   -4.1461107   -3.2842927 
H     4.7310074   -1.7080030   -4.4182497 
