48
Energy =
C    -2.4064247    0.2273033   -5.4055105 
C    -1.9927154   -0.0146377   -4.1359954 
C    -1.8542547    1.2419044   -6.1229796 
C    -0.8869493    2.0051810   -5.5654547 
C    -0.4741167    1.7720818   -4.2941792 
C    -1.0299615    0.7629147   -3.5672301 
H    -2.4353001   -0.8362501   -3.5798240 
H    -0.4388683    2.7999290   -6.1524915 
H     0.3191992    2.3868289   -3.8752929 
H    -3.1768333   -0.3952609   -5.8471369 
C    -0.5515854    0.4790410   -2.1576884 
C     0.6548633   -0.4884818   -2.1450037 
H    -1.3826373    0.0362047   -1.5658951 
H    -0.2918942    1.4323247   -1.6493138 
C     1.8754004    0.1013578   -2.8355816 
O    -2.2634384    1.5198393   -7.4314479 
H    -2.9724905    0.8877577   -7.7853215 
O     2.1135042   -0.2455255   -4.1611380 
N     0.9602096   -0.8945822   -0.7617791 
H     0.3938657   -1.3976728   -2.7386571 
H     1.0460775   -0.0561188   -0.1404701 
H     0.1738846   -1.4777724   -0.3884824 
N     2.5851688    1.2085619   -2.2455512 
C     4.0098795    1.4736190   -2.5482849 
H     2.0988555    1.7680936   -1.5130111 
C     4.1496346    2.6393746   -3.5268490 
O     3.2435444    2.7915119   -4.5687980 
O     5.1990447    3.5554453   -3.4237891 
H     5.8329119    3.3337617   -2.6703376 
C     4.7687320    0.2085425   -3.0242395 
H     4.4790966    1.8031001   -1.5948150 
C     6.2685975    0.3974743   -2.9796592 
H     4.4574356   -0.0693433   -4.0559515 
H     4.4933974   -0.6525667   -2.3760707 
C     7.0590784    0.8459079   -3.9694165 
C     6.7452978    1.2202848   -5.2370181 
C     7.7491695    1.6557593   -6.0510975 
C     9.0363865    1.7103590   -5.5928234 
C     9.3274164    1.3326540   -4.3157216 
C     8.3171840    0.9054057   -3.5293520 
H     5.7223816    1.1934844   -5.6032437 
H     7.5216637    1.9688188   -7.0676771 
H     9.8295746    2.0627542   -6.2475124 
H    10.3420740    1.3764053   -3.9348138 
N     8.4020686    0.4859399   -2.1745787 
C     7.0310100    0.1798400   -1.8940160 
H     9.2399017    0.4219478   -1.5520158 
H     6.6656418   -0.1707967   -0.9315257 
