48
Energy =
C    -2.3286790    3.5136866    0.6010905 
C    -1.8774790    2.7066139   -0.3922713 
C    -1.8506324    4.7808622    0.7222670 
C    -0.9234809    5.2314212   -0.1523670 
C    -0.4726889    4.4306252   -1.1504224 
C    -0.9455767    3.1603017   -1.2760240 
H    -2.2661332    1.6950317   -0.4724965 
H    -0.5447045    6.2405901   -0.0383496 
H     0.2792297    4.8088962   -1.8381060 
H    -3.0713171    3.1423355    1.2989371 
C    -0.4311157    2.2561917   -2.3781563 
C     0.8837655    1.5197317   -2.0165189 
H    -0.2764265    2.8546599   -3.3038597 
H    -1.2081509    1.5043204   -2.6410123 
C     2.0667117    2.4667671   -1.8726374 
O    -2.2952858    5.6391049    1.7336520 
H    -2.9816566    5.2240595    2.3544850 
O     2.2815486    3.1686584   -0.6903366 
N     0.7139682    0.6703445   -0.8261065 
H     1.1412710    0.8553698   -2.8727925 
H     0.5816271    1.2755892    0.0209490 
H    -0.1461919    0.0830190   -0.9262977 
N     2.9032548    2.7433904   -3.0027867 
C     4.3451255    2.4843077   -2.8302648 
H     2.4675753    3.0468163   -3.9029890 
C     5.1692658    3.1942023   -3.8988407 
O     6.1928200    4.0486175   -3.5106512 
O     4.9468105    2.9915636   -5.2630350 
H     4.1962294    2.3389316   -5.4260565 
C     4.5981747    0.9580791   -2.8175182 
H     4.6843574    2.9298316   -1.8624908 
C     6.0070062    0.6336293   -2.3692043 
H     4.3930996    0.5179486   -3.8165169 
H     3.8910468    0.4648077   -2.1137584 
C     7.0877010    0.4499031   -3.1460152 
C     7.2065049    0.4747639   -4.4985644 
C     8.4376581    0.2633772   -5.0457260 
C     9.5201305    0.0316282   -4.2431188 
C     9.3779883    0.0116980   -2.8875282 
C     8.1496344    0.2236769   -2.3699983 
H     6.3531706    0.6677982   -5.1403817 
H     8.5588881    0.2880518   -6.1259785 
H    10.4988521   -0.1303020   -4.6874874 
H    10.2272597   -0.1639171   -2.2362567 
N     7.7922141    0.2558242   -0.9953629 
C     6.3890211    0.5341813   -1.0833732 
H     8.3916443    0.1090585   -0.1512014 
H     5.7329418    0.6654562   -0.2251334 
