48
Energy =
C     4.8604350    0.5514044    5.3460875 
C     4.8582838   -0.3583718    4.3354483 
C     4.3548249    1.8009542    5.1457163 
C     3.8519822    2.1318876    3.9340665 
C     3.8548659    1.2208124    2.9314457 
C     4.3400171   -0.0279524    3.1214205 
H     5.2759076   -1.3469541    4.5061965 
H     3.4496706    3.1264756    3.7773561 
H     3.4292614    1.3961947    1.8484227 
H     5.2711100    0.2790476    6.3122904 
C     4.3731132   -1.0018545    1.9514995 
C     3.0966056   -0.9678606    1.0521107 
H     4.5029655   -2.0345698    2.3433154 
H     5.2676107   -0.7771986    1.3308953 
C     2.9602088    0.3236413    0.2218436 
O     4.3421101    2.7589592    6.1644771 
H     4.7339782    2.4330387    7.0410230 
O     3.0289744    1.5762118    0.8388737 
N     3.0828969   -2.1610761    0.1896057 
H     2.1918169   -0.9901169    1.7037327 
H     3.9665135   -2.2057379   -0.3700440 
H     3.0301169   -3.0266467    0.7762524 
N     2.4539315    0.2738578   -1.1155232 
C     3.3057507    1.0647623   -2.0436709 
H     1.4782664    0.6462810   -1.0554959 
C     2.5543578    2.2213362   -2.7059780 
O     3.0056919    2.7615331   -3.9037965 
O     1.4868258    2.8375524   -2.0695106 
H     1.8542834    3.5630490   -1.4709308 
C     3.8878609    0.0811130   -3.0856887 
H     4.1485927    1.5641758   -1.5049436 
C     5.2222526    0.5476971   -3.6267918 
H     3.1593941   -0.0733292   -3.9135166 
H     4.0286472   -0.9203571   -2.6226772 
C     6.4114826    0.4296045   -3.0169070 
C     6.7207485   -0.1278804   -1.8180033 
C     8.0221157   -0.1076292   -1.4110900 
C     8.9829896    0.4652250   -2.1981671 
C     8.6474348    1.0229937   -3.3965093 
C     7.3533225    0.9881094   -3.7778874 
H     5.9567119   -0.5745425   -1.1888692 
H     8.2961180   -0.5450669   -0.4542022 
H    10.0177477    0.4806371   -1.8651671 
H     9.3959142    1.4878912   -4.0291976 
N     6.7925154    1.5241878   -4.9679591 
C     5.4045927    1.2043280   -4.7860691 
H     7.2652780    2.0125864   -5.7628315 
H     4.6050717    1.4969390   -5.4669701 
