48
Energy =
C    -0.0405451   -2.6787897    3.3579375 
C     0.0557767   -2.6053560    2.0068403 
C     1.0364030   -2.3975397    4.1347451 
C     2.2024428   -2.0445234    3.5537297 
C     2.3064616   -1.9694165    2.2033367 
C     1.2290459   -2.2481291    1.4080500 
H    -0.8204791   -2.8359035    1.4050475 
H     3.0558855   -1.8212813    4.1848085 
H     3.2640256   -1.6834426    1.7989032 
H    -0.9823141   -2.9636406    3.8151392 
C     1.2436127   -2.1931240   -0.1197486 
C     2.5227395   -1.7277817   -0.8689493 
H     0.4086208   -1.5288107   -0.4341160 
H     0.9751526   -3.2043333   -0.4970623 
C     3.0305526   -0.3560012   -0.4324797 
O     0.9724917   -2.4650159    5.5298514 
H     0.0613538   -2.7277754    5.8897777 
O     4.3254473   -0.2073035    0.0642483 
N     3.5626915   -2.7719753   -0.8531253 
H     2.2350093   -1.5800132   -1.9356009 
H     3.8827657   -2.9758223    0.1198264 
H     3.1844196   -3.6630936   -1.2508828 
N     2.2369691    0.8126769   -0.7028653 
C     2.8737423    2.1394520   -0.5699480 
H     1.2223116    0.7090801   -0.9326753 
C     1.8459882    3.2478624   -0.3578051 
O     0.5667641    3.1256799   -0.8886545 
O     2.1864387    4.4398928    0.2805781 
H     3.1409550    4.4417098    0.6083446 
C     3.7603526    2.4231503   -1.8053514 
H     3.5142526    2.1508039    0.3416932 
C     3.0416482    2.1540147   -3.1132802 
H     4.6801973    1.8041809   -1.7380876 
H     4.1114000    3.4791111   -1.7924447 
C     3.1597509    1.0650319   -3.8929128 
C     3.9447819   -0.0350586   -3.7479745 
C     3.8576416   -1.0229432   -4.6833996 
C     2.9997016   -0.8998098   -5.7404859 
C     2.2220899    0.2124626   -5.8675283 
C     2.3260238    1.1767647   -4.9290626 
H     4.6244201   -0.1461060   -2.9082488 
H     4.4733982   -1.9139637   -4.5840652 
H     2.9365014   -1.6924075   -6.4817251 
H     1.5333391    0.3245935   -6.6978877 
N     1.5960981    2.3934045   -4.8673748 
C     2.1145669    2.9634079   -3.6566392 
H     0.8780683    2.7709096   -5.5278591 
H     1.7667185    3.8967614   -3.2128588 
