48
Energy =
C    -0.4285717    3.6073691   -4.8813112 
C     0.1272911    2.4005193   -5.1564692 
C    -1.6034633    3.6798757   -4.2002588 
C    -2.2126429    2.5424247   -3.7963168 
C    -1.6589831    1.3332223   -4.0643826 
C    -0.4869950    1.2543202   -4.7531577 
H     1.0763490    2.3605590   -5.6859086 
H    -3.1439417    2.6134753   -3.2456459 
H    -2.1507954    0.4305381   -3.7092627 
H     0.0753394    4.5139409   -5.1987137 
C     0.1649758   -0.0890420   -5.0096064 
C     1.3258512   -0.3455188   -4.0235679 
H     0.5476016   -0.1119898   -6.0533052 
H    -0.5791522   -0.9132801   -4.9300443 
C     0.8316227   -0.3524931   -2.5691104 
O    -2.2038836    4.9070612   -3.9000558 
H    -1.6669372    5.7101599   -4.2091642 
O    -0.3544543   -1.0293539   -2.2967480 
N     1.9956551   -1.6136285   -4.3629373 
H     2.0405109    0.4788372   -4.1706481 
H     1.3200594   -2.4079728   -4.2380492 
H     2.2881604   -1.6085672   -5.3688383 
N     1.5317177    0.1982577   -1.4259010 
C     2.8430184    0.8723926   -1.5914550 
H     0.8461963    0.8208911   -0.9412407 
C     2.8029604    2.1529290   -2.4360856 
O     3.5938639    2.2683884   -3.5729076 
O     2.0032502    3.2373458   -2.0807046 
H     1.4665082    3.0586902   -1.2459254 
C     3.9183694   -0.1665399   -2.0035520 
H     3.1282205    1.2430338   -0.5806851 
C     5.3179555    0.2606578   -1.6086790 
H     3.8696516   -0.3928094   -3.0863214 
H     3.6909285   -1.1335837   -1.5010972 
C     6.3073165    0.6835064   -2.4163294 
C     6.3355722    0.8328372   -3.7668113 
C     7.4857446    1.2805495   -4.3469541 
C     8.5810941    1.5656240   -3.5805696 
C     8.5331190    1.4051827   -2.2282130 
C     7.3833314    0.9634638   -1.6766049 
H     5.4706603    0.6138374   -4.3846414 
H     7.5291938    1.4150596   -5.4252363 
H     9.4933280    1.9235831   -4.0515808 
H     9.3937968    1.6262933   -1.6059735 
N     7.1322729    0.7247378   -0.2991912 
C     5.7743403    0.2706827   -0.3428519 
H     7.7694260    0.8458739    0.5215771 
H     5.1984081   -0.0266699    0.5311280 
