48
 energy: -8.968151906036 gnorm: 0.000573202280 xtb: 6.6.0 (2ccbbd7)
C            0.26735223065029       -4.47863193119811        0.53354294753401
C           -0.24289794313848       -3.57287543665744       -0.36702681239215
C            1.58205761484350       -4.36706257567261        0.98639482640560
C            2.35677505591222       -3.31405030715310        0.50241459650094
C            1.83553755399101       -2.41426557540093       -0.39453708260133
C            0.52893683557441       -2.52105441511576       -0.84368610764773
H           -1.25543061926241       -3.67952482558874       -0.71687050405951
H            3.36993307095060       -3.22312733808103        0.85104409981393
H            2.43393985229356       -1.59372299198765       -0.74231439801021
H           -0.34260516811801       -5.28708725750658        0.89488189003334
C           -0.03152305587085       -1.58278385856112       -1.87535038533395
C            0.27990078810382       -0.09171660960835       -1.68260230674073
H           -1.11870458041836       -1.71048917162536       -1.90683798579564
H            0.33048653924966       -1.88450247323134       -2.86357014844882
C            1.68213227573695        0.30838052279064       -2.22486966952310
O            2.12649955711636       -5.26124038059154        1.88907360051900
H            1.45915008756824       -5.93854752255450        2.13353846848714
O            1.95477315636560       -0.37163408747338       -3.48207996208023
N           -0.69543793823076        0.76528161493583       -2.47566040846918
H            0.22140934611505        0.17131415416464       -0.61832403840187
H           -1.20134531327687        0.16841424261369       -3.15509483703692
H           -1.41753358786138        1.18859863337533       -1.85925618427949
N            2.81989199133775        0.29918391513918       -1.26595952053547
C            4.13808881490840        0.88044213844815       -1.62012133250329
H            2.50433343260833        0.81779238715550       -0.43670281408799
C            4.10135737334293        2.38297391380831       -1.38948983483092
O            3.12010714725460        2.83711971697147       -0.84028468418748
O            5.16648448615904        3.12287388056186       -1.79159194439686
H            5.87922529706799        2.56015905558821       -2.16434337800378
C            4.65322563626876        0.49074392388486       -3.01838863460028
H            4.84294592321924        0.47354133455812       -0.87768918666548
C            3.82891399776564        1.01492257053912       -4.13642389973944
H            4.65972255280306       -0.60191855176766       -3.09190990857674
H            5.69141450128373        0.80675396858984       -3.15529268375796
C            2.32904712157885        0.89708171146613       -4.09353742451761
C            1.53001819168019        1.65782389963846       -2.99518946128200
C            0.03381066447990        1.85716192124522       -3.28427591259530
C           -0.33855528200924        1.82889469195859       -4.73867012614893
C            0.53149400802740        1.55502203119590       -5.75166875242316
C            1.84546365509023        1.17322919938860       -5.49049192940003
H            2.05618405707387        2.50831519758270       -2.54632439519974
H           -0.24180045847210        3.06149567136949       -2.90222330003646
H           -1.35176309628928        2.09543647092211       -4.98566606377475
H            0.22732677477273        1.67924093473711       -6.77670284780127
N            3.00106718734998        1.29898382900796       -6.23399852658327
C            4.15868572451881        1.20090816991071       -5.43585137157011
H            3.01842945355028        1.61646958629696       -7.20336512743419
H            5.16282848958929        1.20372439577065       -5.82519593388654
