48
Energy =
C    -3.3073170    0.5750506   -3.6475522 
C    -2.0130446    0.3317585   -3.3196522 
C    -3.8953836    1.7469580   -3.2867466 
C    -3.1831980    2.6676632   -2.5982182 
C    -1.8887866    2.4297767   -2.2672321 
C    -1.2942139    1.2600644   -2.6300799 
H    -1.5582737   -0.6116693   -3.6111068 
H    -3.6641999    3.5971176   -2.3137895 
H    -1.3362415    3.1806101   -1.7078667 
H    -3.8713572   -0.1706196   -4.1973608 
C     0.1435328    0.9817198   -2.2513812 
C     0.2559582    0.0089738   -1.0545671 
H     0.6789273    1.9303819   -2.0133956 
H     0.6574178    0.5477495   -3.1358445 
C     1.7021460   -0.3712192   -0.8015549 
O    -5.2270345    2.0287548   -3.6089728 
H    -5.6923506    1.2878158   -4.1215850 
O     2.0982079   -1.6987718   -0.9235049 
N    -0.3510888    0.5970370    0.1531183 
H    -0.2632895   -0.9489776   -1.2978280 
H     0.0285930    1.5598647    0.3191644 
H    -1.3871686    0.6834039    0.0262602 
N     2.6044660    0.5792706   -0.2195283 
C     3.8514209    0.8890052   -0.9720921 
H     2.8376858    0.1866539    0.7213936 
C     4.0131513    2.4048215   -1.0363920 
O     3.3259537    3.1223250   -2.0118225 
O     4.8089515    3.1038611   -0.1289088 
H     5.2047452    2.5024475    0.5779067 
C     3.9289105    0.2726569   -2.4004821 
H     4.7212601    0.4880918   -0.4023747 
C     5.2682370    0.5487981   -3.0521731 
H     3.1118002    0.6788058   -3.0341329 
H     3.7922127   -0.8284761   -2.3660177 
C     6.3995460   -0.1543280   -2.8835509 
C     6.6292735   -1.2687896   -2.1421221 
C     7.8893293   -1.7908612   -2.1314300 
C     8.8897074   -1.1965949   -2.8501518 
C     8.6360916   -0.0756734   -3.5837409 
C     7.3808106    0.4197906   -3.5807410 
H     5.8382903   -1.7410835   -1.5660408 
H     8.0996436   -2.6833791   -1.5467115 
H     9.8919131   -1.6176597   -2.8344003 
H     9.4193001    0.4113182   -4.1547628 
N     6.9119540    1.5768578   -4.2578355 
C     5.5356423    1.5946217   -3.8557554 
H     7.4314327    2.2331781   -4.8849602 
H     4.8241279    2.3734078   -4.1304877 
