48
 energy: -9.076205919998 gnorm: 0.000574421426 xtb: 6.6.0 (2ccbbd7)
C           -0.05861483913841        5.01509471773109       -2.32949411718783
C            0.06468812190619        3.68347580107445       -2.64466507960553
C           -1.15938210222914        5.47151158598583       -1.60445317222594
C           -2.12082255423792        4.54055518404740       -1.21147564075313
C           -1.98563863293234        3.20959713032139       -1.52858484996815
C           -0.89159891752725        2.75866238282924       -2.25385228048454
H            0.92754386153786        3.34478613027537       -3.18738307288990
H           -2.96969113127147        4.89156224781888       -0.65217328316497
H           -2.73295293643795        2.50277169391662       -1.21081879632125
H            0.69855917760654        5.71528200741726       -2.63419072163821
C           -0.72613907631318        1.30110303555805       -2.56502909133523
C            0.46860876142955        0.65628471590404       -1.84378496319234
H           -0.60299764141033        1.17603719619094       -3.64608369298846
H           -1.64677398294208        0.77123135224006       -2.30015694971869
C            1.77015140646869        1.07377417251012       -2.49690131951123
O           -1.31562298342818        6.80324961440670       -1.26937506673500
H           -0.56281386656237        7.32708560413718       -1.61901075166319
O            1.87511639740609        0.96403033059376       -3.70257790669809
N            0.45808249811495        0.95779354767409       -0.41733680339827
H            0.41310347621899       -0.43914341792921       -1.95117503473934
H            0.50643379604342        1.96018726487998       -0.29332727251451
H           -0.41296830316498        0.65420052601883       -0.00126174887356
N            2.77199113186621        1.57319572682427       -1.69699800399024
C            4.12818552890233        1.88769702321399       -2.17687860199298
H            2.65161680023625        1.58308840353389       -0.67779625563863
C            4.14623458511726        3.21542517675204       -2.87831422341672
O            5.13167921694818        4.10731713624212       -2.56662090273701
O            3.17938933181026        3.43190673675730       -3.82676326414218
H            2.67587129728843        2.58539924968568       -3.91053727680651
C            4.68979069531220        0.76736234461305       -3.06428200413877
H            4.77489826948066        1.97510398322889       -1.29078110796023
C            6.17939989486754        0.60822663273508       -3.04281066115005
H            4.34683430372172        0.91624544245057       -4.09302542098565
H            4.23654961073593       -0.17748844882080       -2.74475315352890
C            7.20055366820407        1.58311859866331       -2.80181034863106
C            7.19267199855001        2.95858890338091       -2.52473550857020
C            8.37205369423662        3.61446606071884       -2.33559306456050
C            9.59883942961331        2.93651500138138       -2.41256798565083
C            9.64449246037155        1.59785345385875       -2.68756952572484
C            8.43920930211652        0.91217903250632       -2.88665583283998
H            6.13085529863174        3.57489059073783       -2.51526785941604
H            8.36044097959709        4.67226881232147       -2.13190407135827
H           10.51507012065855        3.48162595021678       -2.25740232144066
H           10.57726062744037        1.06713331249605       -2.75379750988226
N            8.17887944203362       -0.41226951528851       -3.18139467653875
C            6.82158185531378       -0.58273608575025       -3.27903662227706
H            8.89254931846667       -1.13158681365133       -3.31196962717860
H            6.33623107584733       -1.51904828646716       -3.50255666052029
