48
Energy =
C    -1.6376015    2.0041932    2.2730228 
C    -0.4469207    1.5404618    1.8157936 
C    -2.7969851    1.6113030    1.6806317 
C    -2.7561968    0.7576544    0.6323347 
C    -1.5684928    0.2908087    0.1710991 
C    -0.4058220    0.6767102    0.7644455 
H     0.4728017    1.8657069    2.2959939 
H    -3.6876446    0.4556517    0.1662878 
H    -1.5552718   -0.3885437   -0.6768494 
H    -1.6597210    2.6908887    3.1123031 
C     0.9209180    0.1718799    0.2459476 
C     1.6349755    1.2108238   -0.6481305 
H     0.7834358   -0.7756574   -0.3156615 
H     1.5731873   -0.0846097    1.1120840 
C     3.0317119    0.7408549   -0.9918983 
O    -4.0407791    2.0693282    2.1270145 
H    -3.9869650    2.7091789    2.9121837 
O     4.0886937    1.1211823   -0.1677735 
N     0.8521897    1.4844144   -1.8664782 
H     1.7792937    2.1594184   -0.0759997 
H     0.5377438    0.5855779   -2.3025421 
H    -0.0104332    2.0219252   -1.6128151 
N     3.2246814   -0.2434605   -2.0233950 
C     4.4713043   -1.0343316   -1.8685357 
H     3.2200661    0.2905464   -2.9250628 
C     5.6479723   -0.4214144   -2.6310842 
O     5.7303870   -0.5955099   -4.0080636 
O     6.6391408    0.3219393   -1.9925562 
H     6.3940119    0.5452512   -1.0375671 
C     4.1908216   -2.4722782   -2.3535207 
H     4.7854152   -1.1072334   -0.7996067 
C     3.1310356   -3.1425214   -1.5058289 
H     5.1271922   -3.0738483   -2.3081387 
H     3.8820583   -2.4611927   -3.4226659 
C     1.8011462   -3.1026472   -1.6916669 
C     1.0742936   -2.5071050   -2.6719444 
C    -0.2853943   -2.5922352   -2.6139938 
C    -0.8924774   -3.2631758   -1.5894490 
C    -0.1432206   -3.8520202   -0.6143706 
C     1.2006873   -3.7564790   -0.6953704 
H     1.5536264   -1.9620456   -3.4788596 
H    -0.8894939   -2.1207503   -3.3839840 
H    -1.9772768   -3.3247958   -1.5518226 
H    -0.6092344   -4.3826649    0.2092987 
N     2.1544198   -4.2709972    0.2229688 
C     3.3791148   -3.8213954   -0.3719089 
H     2.0028243   -4.8239564    1.0982912 
H     4.3669318   -3.9893739    0.0526379 
