48
Energy =
C     1.8459033    3.3291446    5.5910142 
C     1.8747572    2.4869813    4.5271167 
C     1.5218007    4.6383824    5.4177656 
C     1.2292300    5.0961924    4.1793883 
C     1.2565234    4.2586622    3.1117494 
C     1.5757159    2.9460117    3.2806261 
H     2.1399297    1.4435443    4.6801829 
H     0.9745890    6.1431308    4.0550561 
H     1.0238541    4.6476478    2.1239410 
H     2.0844276    2.9532544    6.5801717 
C     1.6278915    2.0102246    2.0933564 
C     3.0765958    1.7843100    1.6015502 
H     0.9928407    2.3966262    1.2659689 
H     1.1775422    1.0343554    2.3888067 
C     3.1483759    0.6357253    0.6046404 
O     1.4840266    5.5330021    6.4920209 
H     1.7132963    5.1130276    7.3862522 
O     3.8224315   -0.5252459    0.9644179 
N     3.6401150    3.0256076    1.0380249 
H     3.7063061    1.4524091    2.4635861 
H     2.9593240    3.4826109    0.3850376 
H     3.8219100    3.7081883    1.8124493 
N     2.7170559    0.7896518   -0.7591361 
C     3.8468262    1.2015775   -1.6304847 
H     1.9384813    1.4869877   -0.7727643 
C     3.4295040    2.2608733   -2.6514108 
O     2.2056463    2.1489942   -3.3002305 
O     4.2661480    3.3258842   -2.9895218 
H     5.1587359    3.2910848   -2.5191781 
C     4.3802945   -0.0640349   -2.3316033 
H     4.6700799    1.6638224   -1.0324330 
C     5.6882013    0.1905194   -3.0472410 
H     3.6126558   -0.4629324   -3.0315745 
H     4.5368533   -0.8628988   -1.5710436 
C     5.8552212    0.5664415   -4.3258359 
C     4.9342373    0.7852313   -5.2996827 
C     5.3728804    1.1759247   -6.5304220 
C     6.7095303    1.3397002   -6.7680330 
C     7.6161900    1.1158977   -5.7749048 
C     7.1577435    0.7302916   -4.5655188 
H     3.8703792    0.6672745   -5.1139343 
H     4.6536185    1.3652633   -7.3239300 
H     7.0497626    1.6555801   -7.7511094 
H     8.6793896    1.2469484   -5.9453992 
N     7.9276298    0.4610914   -3.4018805 
C     6.8977467    0.1240076   -2.4635859 
H     8.9643430    0.5005626   -3.2685117 
H     7.0744734   -0.1386951   -1.4221809 
