48
Energy =
C    -1.9984711   -2.7311246   -3.8194204 
C    -1.9607611   -1.8659882   -2.7739098 
C    -0.8982251   -3.4630069   -4.1417863 
C     0.2313849   -3.3274222   -3.4117144 
C     0.2736886   -2.4665697   -2.3646822 
C    -0.8218627   -1.7245755   -2.0409340 
H    -2.8451009   -1.2818503   -2.5343019 
H     1.1027637   -3.9139714   -3.6789971 
H     1.1933273   -2.3645472   -1.7969994 
H    -2.9092645   -2.8322200   -4.3995893 
C    -0.7618163   -0.7326129   -0.8951204 
C    -0.2975359    0.6817769   -1.3285544 
H    -0.0754843   -1.1160004   -0.1083420 
H    -1.7582712   -0.6615102   -0.4063541 
C     1.0706691    0.6587574   -2.0095225 
O    -0.9017511   -4.3605198   -5.2149249 
H    -1.7837254   -4.3973597   -5.7141928 
O     1.1265120    0.3489483   -3.3612146 
N    -1.3151056    1.3427533   -2.1632100 
H    -0.1772280    1.2941851   -0.4064468 
H    -1.3707559    0.8670881   -3.0963672 
H    -2.2560304    1.2738753   -1.7115887 
N     2.2633355    0.8838911   -1.2137721 
C     3.6418100    0.5686235   -1.7105734 
H     2.1174228    0.3767862   -0.3100119 
C     4.5941034    1.7565590   -1.6183019 
O     5.9527979    1.5301931   -1.7920684 
O     4.1645420    3.0701039   -1.4210780 
H     3.1661561    3.1295085   -1.2861628 
C     3.7798782   -0.2238322   -3.0450333 
H     4.0931059   -0.1245464   -0.9613122 
C     3.5800841    0.5103140   -4.3735611 
H     3.0923179   -1.0931311   -2.9915776 
H     4.8056883   -0.6547669   -3.0815076 
C     3.3225393   -0.0999531   -5.5459462 
C     3.1652001   -1.4226526   -5.8215476 
C     2.8955708   -1.7919400   -7.1060692 
C     2.7916288   -0.8475905   -8.0886283 
C     2.9566446    0.4723088   -7.7921877 
C     3.2203163    0.8129933   -6.5132128 
H     3.2415567   -2.1792963   -5.0475240 
H     2.7561179   -2.8432739   -7.3482057 
H     2.5726199   -1.1505687   -9.1099293 
H     2.8756210    1.2349535   -8.5596032 
N     3.4237399    2.1198674   -6.0029471 
C     3.6478813    1.8394515   -4.6132181 
H     3.4188952    3.0389940   -6.5032024 
H     3.8222594    2.6176851   -3.8812283 
