48
Energy =
C    -0.0234289    4.1866522   -2.8601715 
C     0.8152727    3.1504063   -3.1096805 
C    -0.3314684    5.0666557   -3.8465703 
C     0.2086357    4.9082426   -5.0738240 
C     1.0498210    3.8747052   -5.3278101 
C     1.3539395    2.9672510   -4.3509621 
H     1.0710439    2.4760649   -2.3033370 
H    -0.0358355    5.6254047   -5.8495766 
H     1.4798704    3.7866283   -6.3203049 
H    -0.4387535    4.3138074   -1.8664884 
C     2.3417675    1.7960575   -4.6461742 
C     1.8045325    0.3656854   -4.2682118 
H     3.9279814    1.8418009   -4.2509240 
H     2.3114507    1.7940494   -5.7629816 
C     2.5362833   -0.2328418   -3.0774563 
O    -1.1966195    6.1434002   -3.6261985 
H    -1.5379527    6.2097843   -2.6732703 
O     3.2365442   -1.4245583   -3.2465842 
N     0.3413565    0.2894255   -4.1372832 
H     2.0690124   -0.3317832   -5.1008359 
H     0.0256417    0.6456697   -3.2074673 
H    -0.1259766    0.8471471   -4.8892908 
N     2.4489945    0.3450795   -1.7669515 
C     3.6693474    1.0666732   -1.3225909 
H     2.2863663   -0.4709493   -1.1318787 
C     3.7686550    2.4755000   -1.8209622 
O     4.8333452    4.5734866    0.4164954 
O     3.5662401    2.8925353   -3.1446179 
H     4.0065391    0.9045922   -5.3074700 
C     4.9868408    0.3213044   -1.5479682 
H     3.5827732    1.1990351   -0.2162296 
C     6.2494299    1.0460868   -1.0741766 
H     5.1260975    0.1475103   -2.6364514 
H     4.9224369   -0.6796737   -1.0625393 
C     6.5337632    2.3790951   -1.1463871 
C     5.7142432    3.4912680   -1.2058982 
C     6.2801457    4.6500906   -1.6954665 
C     7.6162071    4.7335529   -1.9465918 
C     8.4194373    3.6632697   -1.7253121 
C     7.8581255    2.5092909   -1.3151674 
H     4.1425026    3.5737405   -0.5871623 
H     5.6607646    5.5388519   -1.7898419 
H     8.0444717    5.6720132   -2.2892508 
H     9.4866862    3.7187732   -1.9108931 
N     8.5231080    1.2635986   -1.2025847 
C     7.4161522    0.3730558   -1.0753458 
H     9.5472310    1.0534485   -1.2365284 
H     7.4994582   -0.7031651   -1.2153238 
