48
 energy: -9.288140436600 gnorm: 0.000505471368 xtb: 6.6.0 (2ccbbd7)
C            0.08553789862915        1.41249313971821        3.23252518772338
C            0.24026046854097        0.49118788979568        2.22475688811734
C            0.40107453729571        1.07954284065857        4.55013902777256
C            0.87831507748570       -0.20480469954753        4.80947635494396
C            1.03061922161123       -1.11840159496214        3.79400511825088
C            0.70869563155839       -0.78738387824672        2.48529105015215
H            0.01316039787463        0.75786129022246        1.20756440814794
H            1.12449039900964       -0.46096435359247        5.82441486741196
H            1.40279431480720       -2.10489573100058        4.01082949454721
H           -0.27675993940843        2.40086872680290        3.01349235188890
C            0.88843453971025       -1.78305059292276        1.37891929988094
C            2.02099606729150       -1.42900141634203        0.39250563760876
H           -0.05136517453354       -1.87653022110021        0.82470132913409
H            1.07563149470489       -2.76780524490629        1.82022609728907
C            1.54298113809947       -0.51887122098925       -0.72189284283538
O            0.25692280150010        1.97808467137359        5.58996163730358
H           -0.07218210860834        2.83718514973806        5.24831033005732
O            0.50883199924527        0.11169107675058       -0.61536114035559
N            3.16640489310273       -0.83517135604277        1.06577841317878
H            2.37289481265122       -2.35191825452441       -0.09738852803648
H            2.92454631733346        0.09150076073939        1.38839165410971
H            3.42559199746108       -1.38056912169210        1.87713277918383
N            2.34134051434605       -0.36841425600821       -1.85368962722682
C            3.77506262385197       -0.08567720290534       -1.73648085064673
H            1.95330798362657        0.19735801975746       -2.60405700603179
C            3.99480774277227        1.35980674888738       -1.32245454423778
O            5.12501898879492        1.79226969444506       -1.40258770242739
O            2.92417023006227        2.07782374051055       -0.89370986761404
H            2.10361162220976        1.52430646439219       -0.85513465626238
C            4.50404218656847       -0.40369267718141       -3.04594038148848
H            4.17483292225420       -0.71790591285899       -0.93198574699614
C            3.85010633944879        0.19338661484322       -4.24753612726612
H            4.55782340988175       -1.48893522058596       -3.18115689144645
H            5.53757449677553       -0.04779511780426       -2.98085769139808
C            3.88612330935837        1.55683030060172       -4.67015316505777
C            4.49673227346848        2.71034678521114       -4.14822892208232
C            4.34354706663032        3.89594056633036       -4.81037012287914
C            3.58709233004392        3.97530137047153       -5.99052064618783
C            2.97062580478327        2.87071667434619       -6.51111946576251
C            3.11616751883849        1.64669478111065       -5.84611942712698
H            5.02992093970098        2.65329475443182       -3.21605945861580
H            4.79958019309305        4.78796972148045       -4.41384419645319
H            3.48481019706704        4.92528463523724       -6.48845017375484
H            2.38261199545931        2.92307226149017       -7.40978197455770
N            2.61374344797037        0.38577009849284       -6.11169494837682
C            3.05491232151496       -0.47947478568901       -5.14217802671987
H            1.99434872833808        0.15902087843236       -6.89184055386085
H            2.80360679909605       -1.52659241914497       -5.09066943032283
