48
Energy =
C     4.3049098    3.0497782    5.1130994 
C     3.7128561    2.0425586    4.4230886 
C     5.5600190    3.4579096    4.7852384 
C     6.2145143    2.8540906    3.7670934 
C     5.6276722    1.8457921    3.0740198 
C     4.3728868    1.4314993    3.4006753 
H     2.7074624    1.7318391    4.6944791 
H     7.2142405    3.1894037    3.5130700 
H     6.1690905    1.3746963    2.2565773 
H     3.7713869    3.5288572    5.9266364 
C     3.7126029    0.3211087    2.6140134 
C     3.1951559    0.8051070    1.2367137 
H     2.8797627   -0.1402856    3.1908480 
H     4.4557045   -0.4956368    2.4633394 
C     2.7063574   -0.3521292    0.3697457 
O     6.1974329    4.4941663    5.4757344 
H     5.6442324    4.8910895    6.2271287 
O     2.6759040   -1.6478571    0.8747659 
N     2.1263291    1.8052939    1.4033269 
H     4.0480090    1.2630223    0.6834988 
H     1.3931845    1.4394068    2.0571486 
H     2.5230669    2.6750098    1.8322582 
N     2.3162600   -0.1419997   -0.9982119 
C     3.4235569   -0.4608947   -1.9305023 
H     1.9779267    0.8404956   -1.0927810 
C     4.6013576    0.5180157   -1.8793342 
O     5.8926163    0.0109760   -1.8517576 
O     4.4415110    1.9040843   -1.8538906 
H     3.4899682    2.1854374   -2.0239020 
C     2.8647355   -0.6619858   -3.3548893 
H     3.8552869   -1.4508452   -1.6418865 
C     2.2246863    0.5776739   -3.9392992 
H     2.1078808   -1.4782673   -3.3212144 
H     3.6717768   -1.0281989   -4.0271027 
C     2.8205001    1.5224490   -4.6842729 
C     4.1094219    1.6207878   -5.1002275 
C     4.4693315    2.7053464   -5.8448202 
C     3.5466690    3.6643992   -6.1597681 
C     2.2587126    3.5458135   -5.7287629 
C     1.9275086    2.4638012   -4.9932800 
H     4.8490437    0.8689340   -4.8388810 
H     5.4975385    2.8105927   -6.1827432 
H     3.8426750    4.5273243   -6.7507908 
H     1.5158440    4.3000667   -5.9642609 
N     0.6568377    2.1601061   -4.4360588 
C     0.9367948    0.9222998   -3.7692422 
H    -0.2370352    2.6995468   -4.4944601 
H     0.2087037    0.3465804   -3.1998447 
