48
Energy =
C    -3.4422589   -0.7678033   -0.0590124 
C    -2.1139372   -0.7646794   -0.3374372 
C    -3.9076648   -0.1511568    1.0602470 
C    -3.0391772    0.4656174    1.8934519 
C    -1.7100458    0.4720882    1.6197671 
C    -1.2386011   -0.1474646    0.5033429 
H    -1.7580908   -1.2582754   -1.2376016 
H    -3.4226304    0.9550411    2.7819461 
H    -1.0272407    0.9751458    2.2997467 
H    -4.1311718   -1.2635899   -0.7342741 
C     0.2405140   -0.1217592    0.1884198 
C     0.6763319    1.2250822   -0.4354464 
H     0.5129675   -0.9631616   -0.4869514 
H     0.8077176   -0.2947251    1.1319509 
C     2.1894134    1.3119412   -0.5422745 
O    -5.2702082   -0.1350474    1.3757973 
H    -5.8540732   -0.6206918    0.7038605 
O     2.9232114    1.6001147    0.6039897 
N     0.0282488    1.4323706   -1.7428787 
H     0.3892521    2.0567941    0.2510393 
H     0.0677235    0.5560055   -2.3144287 
H    -0.9847362    1.6548551   -1.5943425 
N     2.8754383    0.7610890   -1.6776429 
C     4.0008503    1.5495415   -2.2195759 
H     2.5147101   -0.1159952   -2.1115150 
C     3.5793283    2.9183358   -2.7602128 
O     4.4537508    3.9907385   -2.6268429 
O     2.3834808    3.1198413   -3.4487956 
H     1.8596589    2.2605845   -3.5214298 
C     4.7881662    0.7111508   -3.2556715 
H     4.7066334    1.7710178   -1.3847535 
C     4.0108211    0.4337358   -4.5272008 
H     5.0826668   -0.2543772   -2.7864307 
H     5.7410067    1.2271707   -3.5076490 
C     3.9425505    1.2117369   -5.6205138 
C     4.5380024    2.4042428   -5.8821998 
C     4.2973360    2.9997508   -7.0853156 
C     3.4792849    2.3995954   -8.0020092 
C     2.8965642    1.1999248   -7.7202348 
C     3.1477454    0.6324058   -6.5217399 
H     5.1860746    2.8866629   -5.1565106 
H     4.7555968    3.9589637   -7.3136727 
H     3.2913178    2.8816915   -8.9578170 
H     2.2455355    0.7098241   -8.4357335 
N     2.6458782   -0.6038944   -6.0362206 
C     3.2554147   -0.6582522   -4.7410728 
H     2.0028447   -1.2856397   -6.4988903 
H     3.1316347   -1.4804073   -4.0413257 
