48
 energy: -9.060425984652 gnorm: 0.000509577831 xtb: 6.6.0 (2ccbbd7)
C            0.10899025835055       -1.59925441956295        2.52024768235957
C           -0.19356557317567       -0.34872931863394        2.03410483907262
C            1.34404757683512       -2.18949278448273        2.24821171356967
C            2.25699580379913       -1.48017351127619        1.46835386366832
C            1.94468723151396       -0.23155363945829        0.99069715434507
C            0.72198548230632        0.35824305713848        1.26776532233148
H           -1.15321143394932        0.09203400313653        2.24298771600675
H            3.20259095499707       -1.93907476027137        1.24156275784869
H            2.63131662228007        0.29681790442267        0.35516961633059
H           -0.60724922190248       -2.13663158127402        3.11567567145177
C            0.38831712161070        1.71208518967028        0.71858856824517
C            0.14021249020084        1.71891352674609       -0.79835217146341
H            1.19280748679259        2.40968644905630        0.97074287921617
H           -0.50419361906944        2.08879463741029        1.22886853565222
C            1.44035199242327        1.46136500470837       -1.61693668877040
O            1.67726753359220       -3.44405448828946        2.72302440343284
H            0.93349447891601       -3.81295704105553        3.24696317670090
O            1.55192267357094        0.04292788592782       -1.91381496647744
N           -0.84530205530128        0.70931300516394       -1.14477723464652
H           -0.24798088268198        2.70681329384082       -1.09062157578635
H           -0.94884424747542        0.68703576363002       -2.14815536799169
H           -0.42763969344964       -0.18469430050537       -0.91230349057227
N            2.66219880310462        2.02711107440898       -0.97214721246289
C            4.00134432456148        1.98948396062065       -1.60501156067397
H            2.46429498977374        3.02339921238052       -0.81685445880089
C            4.11833919103039        3.13358986084935       -2.59956877027404
O            3.23405584056313        3.96366496411410       -2.59455601718409
O            5.20205231270523        3.17393704195990       -3.41676375133992
H            5.82948328057399        2.44381178529720       -3.22561746011700
C            4.38256342230529        0.62071263074749       -2.19147454494033
H            4.71294642036601        2.21620545676293       -0.79501371545031
C            3.51948391848476        0.18038208940131       -3.31384596097922
H            4.31095469845192       -0.13222307413011       -1.39979619546139
H            5.42768693385795        0.61176089011364       -2.51415356851991
C            2.02031006507530        0.34563170407989       -3.25928235888771
C            1.37614614470213        1.77128922614194       -3.15870815106569
C            0.01966413480593        1.85791111756495       -3.79477048046327
C           -0.47854350506902        0.90364595102182       -4.59193910221640
C            0.27973844912864       -0.25880136987908       -4.96619317586884
C            1.47743151169205       -0.49895738348821       -4.38803687978569
H            2.05569614625893        2.56621966021821       -3.48351918642346
H           -0.57610229799713        2.72678422645394       -3.57063977752459
H           -1.45942355639085        1.02992587115393       -5.02006053596898
H           -0.03766313185013       -0.86366275831087       -5.79732221656348
N            2.58104529201952       -1.21107341152907       -4.85007970790127
C            3.77177081156456       -0.78160093909102       -4.22564992676608
H            2.57451326389084       -1.72225485979043       -5.73254755722298
H            4.73731199179038       -1.22485589490435       -4.40260233095841
