48
Energy =
C    -2.2476935   -1.2793665    0.9921154 
C    -1.1793249   -0.8953778    0.2488089 
C    -3.3902381   -1.6946156    0.3828936 
C    -3.4555445   -1.7216625   -0.9677096 
C    -2.3901239   -1.3387615   -1.7162621 
C    -1.2429056   -0.9251645   -1.1108894 
H    -0.2721911   -0.5649244    0.7488545 
H    -4.3734174   -2.0527954   -1.4410079 
H    -2.4654841   -1.3632497   -2.8000264 
H    -2.1857708   -1.2529174    2.0745475 
C    -0.0539124   -0.4849351   -1.9364164 
C     0.0857464    1.0512696   -1.9978741 
H    -0.1180084   -0.8934403   -2.9682574 
H     0.8625999   -0.9157259   -1.4756687 
C     1.4185593    1.4523828   -2.6153549 
O    -4.5093720   -2.0972549    1.1190127 
H    -4.3822486   -2.0444447    2.1237645 
O     1.4345247    2.1810056   -3.8018405 
N    -1.0450883    1.6502712   -2.7246420 
H     0.0986666    1.4629957   -0.9624659 
H    -1.0754675    1.2851358   -3.7056191 
H    -1.9489476    1.4169890   -2.2536423 
N     2.6200181    1.2895643   -1.8308752 
C     3.8956068    1.2093823   -2.5926113 
H     2.6598184    2.1099176   -1.1805753 
C     4.2724223    2.5112961   -3.2952713 
O     5.5862191    2.9594410   -3.2392716 
O     3.3505040    3.2122876   -4.0544062 
H     2.3940774    2.6961795   -3.9271502 
C     3.9109939    0.0143924   -3.5800139 
H     4.7114028    1.0589545   -1.8514963 
C     3.9583406   -1.3208487   -2.8707102 
H     4.8046855    0.0825324   -4.2405422 
H     3.0282837    0.0638569   -4.2564798 
C     5.0007866   -1.8413360   -2.2018223 
C     6.2459175   -1.3375270   -1.9977693 
C     7.1374102   -2.0823155   -1.2829009 
C     6.7788075   -3.3084771   -0.7949122 
C     5.5273990   -3.7992112   -1.0224740 
C     4.6622379   -3.0420423   -1.7290844 
H     6.5404049   -0.3713995   -2.3977341 
H     8.1403773   -1.7009401   -1.1047185 
H     7.4962326   -3.8974677   -0.2287241 
H     5.2297273   -4.7739623   -0.6510809 
N     3.3314512   -3.3754439   -2.0957551 
C     2.9530434   -2.2122041   -2.8418819 
H     2.7807608   -4.2384534   -1.8819895 
H     1.9972037   -2.0922868   -3.3424853 
