48
Energy =
C    -1.1211959    1.2573794    2.6317683 
C    -0.1434466    2.1034485    2.2195041 
C    -0.8402437   -0.0534164    2.8587911 
C     0.4188396   -0.5086146    2.6699343 
C     1.4010016    0.3333268    2.2600640 
C     1.1263190    1.6470814    2.0316358 
H    -0.3868743    3.1470244    2.0388276 
H     0.6295668   -1.5572847    2.8482647 
H     2.4029587   -0.0566450    2.1112292 
H    -2.1285527    1.6315458    2.7784442 
C     2.2152758    2.5900384    1.5601099 
C     2.4360047    2.5632694    0.0242676 
H     3.1679324    2.3473980    2.0819386 
H     1.9715985    3.6305225    1.8709528 
C     3.0209840    1.2420287   -0.4647735 
O    -1.8241956   -0.9509067    3.2869592 
H    -2.7426068   -0.5346974    3.3934391 
O     2.1730586    0.2280625   -0.8992069 
N     1.1993165    2.9253827   -0.6946239 
H     3.2102122    3.3244838   -0.2230754 
H     0.4781447    2.1724137   -0.5769638 
H     0.8003269    3.8118745   -0.3067766 
N     4.3677673    0.8826143   -0.1174777 
C     5.4514127    1.1805150   -1.0730537 
H     4.5537845    0.4658496    0.8207461 
C     5.7502036    2.6775006   -1.1384091 
O     4.9726947    3.5041882   -1.9403364 
O     6.7175290    3.2659773   -0.3250077 
H     7.2091551    2.5860133    0.2353373 
C     5.1269789    0.5638929   -2.4531901 
H     6.3716010    0.6793936   -0.6983160 
C     6.3461601    0.5195814   -3.3502098 
H     4.2941661    1.1139217   -2.9434316 
H     4.7608208   -0.4769377   -2.3064961 
C     6.6671023    1.3705340   -4.3399847 
C     5.9991828    2.4531625   -4.8163893 
C     6.5540531    3.1585711   -5.8433349 
C     7.7533665    2.7756367   -6.3763342 
C     8.4057601    1.6845764   -5.8848437 
C     7.8373235    1.0035535   -4.8676356 
H     5.0480276    2.7654457   -4.3975016 
H     6.0401969    4.0328165   -6.2361147 
H     8.1895737    3.3451169   -7.1931619 
H     9.3587380    1.3681439   -6.2948743 
N     8.3515366   -0.1492476   -4.2163723 
C     7.3268359   -0.3949602   -3.2459082 
H     9.2368751   -0.6753204   -4.3971923 
H     7.3497496   -1.2055377   -2.5217205 
