48
Energy =
C     1.5387326    0.4818083    2.9628253 
C     0.6194265    1.1346953    2.1927199 
C     2.1534438   -0.6439381    2.4831547 
C     1.8559853   -1.0787997    1.2562755 
C     0.9941728   -0.4419936    0.4972076 
C     0.3250525    0.6591293    0.9439040 
H     0.1266056    2.0282959    2.5618665 
H     2.2441694   -1.9585129    0.8074591 
H     0.9550150   -0.9144955   -0.4531808 
H     1.7786699    0.8523552    3.9540011 
C    -0.7458096    1.3195173    0.0932821 
C    -0.2119235    2.0911122   -1.1426269 
H    -1.3398526    2.0245024    0.7152822 
H    -1.4612915    0.5331349   -0.2323772 
C     1.1090697    2.7852561   -0.8664443 
O     3.1028163   -1.3599286    3.2109192 
H     3.2250449   -1.0169203    4.1570242 
O     1.2405962    3.6210086    0.2420953 
N    -0.1400324    1.2263662   -2.3326883 
H    -0.9365894    2.9042488   -1.3664755 
H     0.4090993    0.3657496   -2.0938025 
H    -1.1008269    0.8813527   -2.5592480 
N     2.2097697    2.6759457   -1.7775666 
C     3.4349931    2.0474768   -1.2615436 
H     2.1355508    3.0958525   -2.7324004 
C     4.6321110    2.9588952   -1.5033275 
O     5.5739768    2.6458399   -2.4798492 
O     4.8075215    4.1259076   -0.7600441 
H     4.0022726    4.3240574   -0.1785665 
C     3.5826913    0.6546418   -1.9102859 
H     3.3667764    1.9077806   -0.1573571 
C     4.8280836   -0.0805280   -1.4541816 
H     3.5468494    0.7590264   -3.0141000 
H     2.6985957    0.0360286   -1.6373633 
C     5.8732392   -0.4596579   -2.2109655 
C     6.1002704   -0.2903433   -3.5402957 
C     7.2653769   -0.7652110   -4.0669293 
C     8.1784930   -1.3964330   -3.2680242 
C     7.9321231   -1.5546056   -1.9367149 
C     6.7717553   -1.0757286   -1.4389419 
H     5.3886025    0.2199461   -4.1821039 
H     7.4698700   -0.6347639   -5.1278348 
H     9.1068902   -1.7695341   -3.6958282 
H     8.6482860   -2.0490615   -1.2875463 
N     6.3321622   -1.1281158   -0.0900224 
C     5.0687225   -0.4602899   -0.1863548 
H     6.7949811   -1.5371400    0.7550911 
H     4.4145757   -0.2695049    0.6590941 
