48
Energy =
C    -0.0467584    6.5567465    1.2134713 
C    -0.0311907    5.2130704    1.4014341 
C     0.9393197    7.1579008    0.4956014 
C     1.9338904    6.4078018   -0.0313614 
C     1.9552338    5.0642613    0.1558928 
C     0.9732306    4.4569799    0.8770723 
H    -0.8292717    4.7451147    1.9715091 
H     2.7123592    6.8948591   -0.6090652 
H     2.7626182    4.4854373   -0.2801769 
H    -0.8507754    7.1489644    1.6364883 
C     0.9728674    2.9540779    1.0686979 
C    -0.0016495    2.2529283    0.0951064 
H     0.6756291    2.7283711    2.1165831 
H     1.9996807    2.5439198    0.9503865 
C     0.4575618    2.3564396   -1.3554146 
O     0.9543416    8.5413191    0.2875878 
H     0.1665196    9.0304676    0.6975166 
O    -0.0226570    3.3965763   -2.1417816 
N    -0.2127037    0.8560231    0.5148039 
H    -0.9858349    2.7788112    0.1244076 
H     0.7045177    0.3694708    0.6487481 
H    -0.7098950    0.8368322    1.4368538 
N     1.1241383    1.2693296   -2.0122915 
C     2.5628651    1.0670211   -1.7491364 
H     0.5625295    0.7058555   -2.6862236 
C     3.4109889    2.3202506   -1.9753093 
O     4.4943684    2.5522169   -1.1354630 
O     3.1647001    3.2250928   -3.0062349 
H     2.3606753    2.9467024   -3.5523211 
C     3.0809439   -0.1552603   -2.5444345 
H     2.6870478    0.8191304   -0.6724731 
C     3.1135954    0.0717032   -4.0427878 
H     2.4369699   -1.0349399   -2.3187968 
H     4.0989397   -0.4293205   -2.1887893 
C     4.1190400    0.6029106   -4.7589300 
C     5.3364594    1.0511964   -4.3560393 
C     6.1851793    1.5577221   -5.2958440 
C     5.8120544    1.6044631   -6.6103822 
C     4.5870863    1.1451160   -6.9928327 
C     3.7644676    0.6505931   -6.0440189 
H     5.6362057    1.0209174   -3.3130386 
H     7.1614276    1.9308059   -4.9966001 
H     6.4930668    2.0121730   -7.3527115 
H     4.2748438    1.1760991   -8.0309161 
N     2.4579327    0.1271080   -6.2298928 
C     2.1093878   -0.2271010   -4.8860288 
H     1.9055878    0.0261861   -7.1116194 
H     1.1664909   -0.6855617   -4.5993783 
