48
Energy =
C    -1.7785435    3.2916144   -4.4738639 
C    -1.0968645    3.0413656   -3.3209963 
C    -1.4473043    2.6850227   -5.6471608 
C    -0.4396896    1.7986996   -5.7029155 
C     0.2249624    1.5277735   -4.5836172 
C    -0.0499495    2.1552478   -3.2771132 
H    -1.3963883    3.5966235   -2.4332890 
H    -0.1938863    1.2837065   -6.6237047 
H     0.9221626    1.0604314   -3.8576824 
H    -2.6000258    4.0074666   -4.4598648 
C     0.8169812    2.1893679   -1.7759931 
C     1.5136724    1.0645350   -0.6501108 
H     0.1378401    2.7561623   -1.1028150 
H     1.6216052    2.9361671   -1.9605836 
C     2.8546871    0.1304211   -0.9321946 
O    -2.1456507    2.9551172   -6.8192396 
H    -2.9018757    3.6298256   -6.7278985 
O     2.9088460   -0.3961859   -2.1776005 
N     1.7169490    1.7812011    0.6154104 
H     0.7163714    0.3010093   -0.4671242 
H     2.2405170    2.6802318    0.4705114 
H     0.7969098    2.0306437    1.0598161 
N     3.8459749   -0.5299168   -0.1441201 
C     4.6285681   -1.6472388   -0.8608714 
H     4.0072209   -0.2433894    0.8516379 
C     5.8786233   -1.9807750   -0.0549906 
O     6.6304320   -0.9413463    0.4747118 
O     6.3374648   -3.2883969    0.0874212 
H     5.7480897   -3.9707589   -0.3667606 
C     5.0515426   -1.3918539   -2.4337959 
H     3.9994867   -2.5653198   -0.8393635 
C     4.1363904   -1.9583856   -3.6503501 
H     6.0674415   -1.8318946   -2.5700670 
H     5.2819513   -0.3169292   -2.6020423 
C     2.8270109   -1.6943065   -4.2029101 
C     1.7289853   -0.7801392   -3.8913030 
C     0.4767876   -1.2574170   -4.2509464 
C     0.3159332   -2.2954118   -5.1051002 
C     1.3802912   -2.9814571   -5.5620576 
C     2.6028892   -2.6855453   -5.0935692 
H     1.8539315    0.6068914   -2.8601212 
H    -0.4285243   -0.8054369   -3.8551384 
H    -0.6841933   -2.6035922   -5.4043952 
H     1.2425761   -3.8315238   -6.2235105 
N     3.7307339   -3.5168125   -5.2834052 
C     4.6377421   -3.0145186   -4.3172165 
H     3.8594857   -4.3110989   -5.9540941 
H     5.5995860   -3.4844577   -4.1147185 
