48
Energy =
C     2.7704823    5.0430535   -1.5325415 
C     1.7306428    4.2461232   -1.8860755 
C     2.8283323    5.5755153   -0.2836697 
C     1.8460842    5.3011140    0.6049351 
C     0.8146638    4.4879059    0.2616325 
C     0.7541038    3.9516218   -0.9883854 
H     1.6935050    3.8240150   -2.8873190 
H     1.9050187    5.7293640    1.5992017 
H     0.0476127    4.2614493    0.9966928 
H     3.5631179    5.2387891   -2.2467938 
C    -0.3595970    2.9976141   -1.3654360 
C     0.0474249    1.5075172   -1.2416667 
H    -0.6825707    3.2009933   -2.4122022 
H    -1.2544363    3.1853426   -0.7330928 
C     1.0889544    1.0967193   -2.2764067 
O     3.8818126    6.4065483    0.1121910 
H     4.6166184    6.4961839   -0.5814389 
O     0.7578299    1.2243107   -3.6217772 
N     0.4600432    1.1859761    0.1381879 
H    -0.8442529    0.8905724   -1.4946473 
H     1.3618001    1.6760588    0.3569718 
H    -0.2555303    1.5400171    0.8150064 
N     2.1101034    0.1530624   -1.9288446 
C     3.4534359    0.2783382   -2.5304285 
H     1.8803844   -0.5936929   -1.2356023 
C     3.9681094    1.7183355   -2.5953042 
O     4.7607767    2.1932136   -1.5586449 
O     3.7013420    2.5779241   -3.6638065 
H     2.9975611    2.2031372   -4.2836304 
C     3.4982025   -0.4490074   -3.8919331 
H     4.1783245   -0.2291839   -1.8537914 
C     3.2838024   -1.9370282   -3.7284752 
H     4.4875820   -0.2758937   -4.3716739 
H     2.7366068   -0.0302988   -4.5826496 
C     2.1146683   -2.5993314   -3.7672008 
C     0.8563881   -2.1418784   -3.9935765 
C    -0.1739308   -3.0366095   -3.9703429 
C     0.0663688   -4.3596183   -3.7240926 
C     1.3375496   -4.7968056   -3.4988548 
C     2.3393926   -3.8932310   -3.5278473 
H     0.6632618   -1.0904659   -4.1862715 
H    -1.1922235   -2.6958237   -4.1466653 
H    -0.7600808   -5.0667140   -3.7057264 
H     1.5445100   -5.8432257   -3.2987990 
N     3.7214530   -4.1390014   -3.3094105 
C     4.2608865   -2.8183918   -3.4504993 
H     4.2112457   -5.0406206   -3.1012998 
H     5.3134527   -2.5681854   -3.3303815 
