48
Energy =
C     1.3591737   -3.1342177   -3.3476919 
C     0.8459904   -2.5904054   -2.2145418 
C     0.7371115   -2.9396415   -4.5402324 
C    -0.4002125   -2.2099707   -4.5896335 
C    -0.9182106   -1.6650730   -3.4596797 
C    -0.2922953   -1.8443465   -2.2638084 
H     1.3659259   -2.7338808   -1.2680889 
H    -0.8887711   -2.0661810   -5.5466454 
H    -1.8314021   -1.0797259   -3.5215427 
H     2.2735106   -3.7159359   -3.2970952 
C    -0.8449110   -1.2098063   -1.0016754 
C    -0.1969195    0.1524781   -0.6440628 
H    -0.6939647   -1.9110223   -0.1493046 
H    -1.9454835   -1.0792441   -1.0895190 
C     1.3080522    0.0550741   -0.4236738 
O     1.2496371   -3.4711542   -5.7273000 
H     2.0835844   -4.0328762   -5.5958404 
O     1.7351966   -0.4926881    0.7807074 
N    -0.5699463    1.1998735   -1.6145260 
H    -0.5866989    0.4534666    0.3587604 
H    -0.4509521    0.8615718   -2.5968991 
H    -1.5876641    1.4219443   -1.5022282 
N     2.2248861    0.0321926   -1.5336845 
C     3.5320363    0.6412228   -1.1881308 
H     1.7905819    0.5117134   -2.3498261 
C     3.5140083    2.1353161   -0.8397488 
O     4.6201156    2.6565633   -0.1809230 
O     2.5195598    3.0281678   -1.2413034 
H     1.7070484    2.5751197   -1.6215192 
C     4.5489050    0.3251234   -2.3094821 
H     3.9247167    0.1560614   -0.2609832 
C     4.1340937    0.8675594   -3.6619771 
H     4.6567723   -0.7802785   -2.3823801 
H     5.5549617    0.7142390   -2.0351876 
C     4.3687614    2.0951150   -4.1559117 
C     5.0459396    3.1410648   -3.6155005 
C     5.1326342    4.2982231   -4.3326422 
C     4.5519378    4.3912916   -5.5670742 
C     3.8797774    3.3277183   -6.0916161 
C     3.8058518    2.1947614   -5.3621839 
H     5.5060159    3.0745795   -2.6338575 
H     5.6618933    5.1527266   -3.9164760 
H     4.6234917    5.3182673   -6.1309740 
H     3.4117007    3.3850233   -7.0685433 
N     3.1532174    0.9853421   -5.7216237 
C     3.4121234    0.1795205   -4.5650919 
H     2.6216160    0.7472232   -6.5911369 
H     3.0520175   -0.8396130   -4.4308450 
