48
Energy =
C    -0.7862557    3.5067064   -6.8108366 
C    -0.3707884    3.3518725   -5.5284011 
C    -2.1128642    3.6099480   -7.0918105 
C    -3.0150638    3.5568067   -6.0856182 
C    -2.6053664    3.4019156   -4.8010270 
C    -1.2783356    3.3021223   -4.5146971 
H     0.6931515    3.2673064   -5.3188735 
H    -4.0698892    3.6385455   -6.3232872 
H    -3.3467916    3.3563516   -4.0079675 
H    -0.0545133    3.5462293   -7.6104264 
C    -0.8125621    3.1114123   -3.0886934 
C    -0.4455096    1.6382491   -2.7868619 
H    -1.5820531    3.4670234   -2.3673618 
H     0.0783117    3.7583034   -2.9179681 
C     0.2680353    1.4968864   -1.4525114 
O    -2.5749721    3.7690719   -8.4025678 
H    -1.8363799    3.8012543   -9.0967168 
O     0.0971278    2.4493136   -0.4504626 
N    -1.6412924    0.7815153   -2.8251015 
H     0.2795319    1.2860085   -3.5578732 
H    -2.3888581    1.1774376   -2.2069897 
H    -2.0194466    0.7495400   -3.8011914 
N     1.2593838    0.4774353   -1.2818828 
C     2.6625604    0.9230877   -1.2376931 
H     0.9525819   -0.5077297   -1.1138258 
C     3.2330505    1.0432859   -2.6435274 
O     3.3687678    2.2988742   -3.2310328 
O     3.5615082   -0.0931881   -3.3808522 
H     3.9005376    0.1815397   -4.2928698 
C     3.4650354   -0.0488512   -0.3478972 
H     2.7208633    1.9379968   -0.7769829 
C     4.8661462    0.4591598   -0.0816216 
H     3.4848503   -1.0604572   -0.8090496 
H     2.9393269   -0.1602149    0.6268617 
C     6.0030259    0.0793458   -0.6894646 
C     6.2104959   -0.8529969   -1.6553404 
C     7.4819154   -1.0446681   -2.1101955 
C     8.5165763   -0.3113173   -1.5993265 
C     8.2859155    0.6189071   -0.6301203 
C     7.0194778    0.7901469   -0.1960970 
H     5.3934821   -1.4374418   -2.0665012 
H     7.6721908   -1.7841027   -2.8843732 
H     9.5268838   -0.4696474   -1.9681428 
H     9.0949693    1.2104220   -0.2152549 
N     6.5693570    1.7038093    0.7938645 
C     5.1636862    1.4267870    0.8035991 
H     7.1148996    2.3917653    1.3617222 
H     4.4410100    1.9407499    1.4332036 
