48
Energy =
C     8.4442358    1.2650836    4.2301650 
C     7.1937609    1.2118822    3.7059146 
C     9.4203768    1.9710247    3.5993038 
C     9.1377762    2.6186339    2.4461032 
C     7.8888397    2.5691778    1.9171838 
C     6.9070198    1.8680263    2.5478846 
H     6.4246054    0.6394074    4.2189258 
H     9.9263109    3.1752548    1.9514181 
H     7.6842708    3.0906925    0.9855525 
H     8.6615440    0.7399485    5.1539796 
C     5.5177856    1.7914337    1.9552195 
C     5.2844055    0.4661568    1.1939565 
H     5.3304279    2.6545203    1.2783125 
H     4.7721260    1.8819084    2.7786440 
C     3.8194559    0.3083469    0.8254122 
O    10.7195077    2.0455569    4.1120771 
H    10.8504207    1.5344206    4.9781962 
O     2.9402948   -0.0916396    1.8239598 
N     6.1574212    0.3800944    0.0099762 
H     5.5026921   -0.3933673    1.8716674 
H     6.1255377    1.2759777   -0.5333500 
H     7.1491021    0.2425725    0.3172805 
N     3.2715763    1.0365665   -0.2754412 
C     3.3846206    0.4375591   -1.6131980 
H     2.8347981    1.9686233   -0.1034611 
C     3.9600218    1.4576566   -2.5935981 
O     3.2479105    2.6232441   -2.8570948 
O     5.1917249    1.2712504   -3.2264335 
H     5.6375308    0.4093792   -2.9441110 
C     1.9936261   -0.0349031   -2.0727688 
H     4.0605341   -0.4478403   -1.5907766 
C     1.5658363   -1.2891555   -1.3432724 
H     1.9985083   -0.2326893   -3.1668587 
H     1.2492029    0.7751113   -1.9064277 
C     1.8639556   -2.5534985   -1.6819114 
C     2.5788654   -3.0277231   -2.7350296 
C     2.7496412   -4.3763553   -2.8473368 
C     2.2137082   -5.2206974   -1.9144289 
C     1.5051453   -4.7211135   -0.8622004 
C     1.3469601   -3.3838987   -0.7750422 
H     3.0150018   -2.3592055   -3.4714689 
H     3.3189532   -4.7816964   -3.6805165 
H     2.3574539   -6.2941453   -2.0087121 
H     1.0803847   -5.3755802   -0.1086720 
N     0.6678421   -2.6647009    0.2436269 
C     0.8675899   -1.3132899   -0.1944236 
H     0.1495777   -3.0219667    1.0786934 
H     0.5528398   -0.4322418    0.3619978 
