48
Energy =
C     1.4521177   -2.3931404    1.2021828 
C     2.1854684   -1.4385032    1.8274196 
C     0.1545955   -2.1529915    0.8766542 
C    -0.4019386   -0.9596427    1.1829905 
C     0.3261967   -0.0019618    1.8090006 
C     1.6293567   -0.2325474    2.1317049 
H     3.2260165   -1.6421210    2.0730407 
H    -1.4383834   -0.7808232    0.9199644 
H    -0.1402273    0.9499401    2.0472236 
H     1.9099987   -3.3459621    0.9585256 
C     2.4567650    0.8392001    2.8165967 
C     3.2956539    1.7028428    1.8415603 
H     3.1467218    0.3530416    3.5438558 
H     1.8026196    1.5017675    3.4244590 
C     4.2434757    0.8728120    0.9785071 
O    -0.6262134   -3.1099280    0.2210216 
H    -0.1490172   -3.9918710    0.0637303 
O     5.3243605    0.2784120    1.6233738 
N     2.4411532    2.6131307    1.0554367 
H     3.9792639    2.3285833    2.4632288 
H     1.6157069    2.1087742    0.6594271 
H     2.0633234    3.3582752    1.6878165 
N     3.8149650    0.3145452   -0.2810408 
C     4.9303930    0.2440136   -1.2549737 
H     3.0358329    0.8888702   -0.6621094 
C     5.5962989    1.5799827   -1.6165835 
O     6.8717057    1.5428514   -2.1632197 
O     4.9461180    2.8146258   -1.5716216 
H     4.0414430    2.7757806   -1.1353014 
C     4.4653264   -0.5077825   -2.5194223 
H     5.7461805   -0.3749954   -0.8116383 
C     3.3777114    0.2272193   -3.2766963 
H     4.1221162   -1.5240353   -2.2319135 
H     5.3382633   -0.6606358   -3.1946994 
C     2.0520958    0.0244457   -3.1907920 
C     1.3511154   -0.8714190   -2.4476208 
C    -0.0096786   -0.8669410   -2.5406229 
C    -0.6437029    0.0276675   -3.3569488 
C     0.0792604    0.9235678   -4.0866911 
C     1.4243537    0.8954752   -3.9832917 
H     1.8482770   -1.5770138   -1.7889308 
H    -0.5944545   -1.5806796   -1.9642984 
H    -1.7288520    0.0238529   -3.4247705 
H    -0.4079719    1.6427302   -4.7365626 
N     2.3521689    1.7444816   -4.6425495 
C     3.5948523    1.2488376   -4.1250335 
H     2.1785741    2.5192157   -5.3240777 
H     4.5739789    1.6726843   -4.3535105 
