48
Energy =
C     4.7653924    4.7168463    3.9420368 
C     4.5660686    4.1669634    2.7173070 
C     3.8410323    4.5486261    4.9251630 
C     2.7227313    3.8299672    4.6755406 
C     2.5180586    3.2778671    3.4527825 
C     3.4382733    3.4468397    2.4644214 
H     5.3153889    4.3051901    1.9399868 
H     1.9944240    3.7017186    5.4689879 
H     1.6149338    2.7002964    3.2727781 
H     5.6662463    5.2900857    4.1334832 
C     3.2223573    2.8165553    1.1072501 
C     3.5337799    1.2992852    1.1094079 
H     3.8459889    3.3270092    0.3373390 
H     2.1659899    2.9827002    0.7965568 
C     3.1849534    0.6671676   -0.2283676 
O     4.0156784    5.1003696    6.1982158 
H     4.8756967    5.6273285    6.3059826 
O     2.1174725   -0.2203035   -0.2992352 
N     4.9435111    1.0522120    1.4587747 
H     2.8801531    0.7913910    1.8576321 
H     5.5659661    1.7182165    0.9407663 
H     5.0868171    1.2381505    2.4790502 
N     3.6798401    1.2332164   -1.4464368 
C     5.0526759    0.8918679   -1.8524576 
H     3.0337424    1.7919729   -2.0457465 
C     5.9061411    2.1503148   -1.8999565 
O     5.4229984    3.2804509   -2.5489069 
O     7.1764723    2.2009662   -1.3234666 
H     7.4644677    1.3130241   -0.9393948 
C     5.0263153    0.2019957   -3.2278513 
H     5.5173233    0.1934643   -1.1183466 
C     4.3641699   -1.1560895   -3.1486354 
H     6.0686397    0.0691035   -3.5957536 
H     4.5154121    0.8518403   -3.9710454 
C     3.0727788   -1.4473039   -3.3767472 
C     2.0511767   -0.6431417   -3.7693412 
C     0.8135859   -1.1953111   -3.9252250 
C     0.6171791   -2.5279401   -3.6899005 
C     1.6574337   -3.3165179   -3.2972071 
C     2.8721839   -2.7471448   -3.1505662 
H     2.2017925    0.4150367   -3.9522767 
H    -0.0220938   -0.5713334   -4.2325137 
H    -0.3730996   -2.9597703   -3.8111480 
H     1.5184085   -4.3742321   -3.1014328 
N     4.0752820   -3.3860812   -2.7473807 
C     4.9898347   -2.2828346   -2.7642330 
H     4.2466205   -4.3901277   -2.5104368 
H     6.0374753   -2.3493700   -2.4797713 
