48
Energy =
C     0.2126357   -0.5003984    3.3890558 
C     1.1531474    0.4349302    3.1009724 
C    -0.0549656   -1.4964759    2.5029319 
C     0.6203406   -1.5481825    1.3328918 
C     1.5600201   -0.6151264    1.0397613 
C     1.8316876    0.3860287    1.9210722 
H     1.3578266    1.2207008    3.8229071 
H     0.4001542   -2.3477533    0.6342321 
H     2.0959685   -0.6837992    0.1000339 
H    -0.3229959   -0.4515648    4.3309369 
C     2.8843060    1.4260515    1.5966130 
C     2.3126785    2.6982749    0.9094664 
H     3.6656700    0.9653865    0.9545425 
H     3.4158816    1.7164110    2.5297449 
C     1.6404800    2.4132090   -0.4368173 
O    -1.0125806   -2.4798815    2.7714365 
H    -1.4886897   -2.3603644    3.6588216 
O     0.2966325    2.7175478   -0.6202437 
N     1.4264755    3.4315096    1.8338558 
H     3.1545860    3.3780482    0.6510263 
H     0.5224777    2.9137846    1.9598201 
H     1.8717247    3.5418873    2.7744815 
N     2.3110752    1.6906844   -1.4826785 
C     3.6847039    2.0780330   -1.8658576 
H     1.8491699    0.8137695   -1.8081320 
C     3.6967056    3.4202357   -2.5921455 
O     3.0415805    3.5469528   -3.8094738 
O     4.3791405    4.5252833   -2.0799489 
H     4.9070513    4.3148247   -1.2489923 
C     4.3087159    0.9829074   -2.7579007 
H     4.3191705    2.1691804   -0.9630802 
C     4.3720529   -0.3562792   -2.0546048 
H     5.3367404    1.2812767   -3.0625963 
H     3.7148101    0.8958020   -3.6979281 
C     5.1833072   -0.6964977   -1.0404975 
C     6.1648179    0.0181792   -0.4323578 
C     6.8343990   -0.5556956    0.6076449 
C     6.5178590   -1.8209519    1.0192027 
C     5.5320585   -2.5216778    0.3898914 
C     4.8864290   -1.9333445   -0.6385480 
H     6.4234207    1.0201132   -0.7608773 
H     7.6270188   -0.0054807    1.1092108 
H     7.0572183   -2.2720697    1.8487737 
H     5.2690338   -3.5266803    0.7027476 
N     3.8299061   -2.4802541   -1.4147751 
C     3.5556037   -1.3945030   -2.3096701 
H     3.3701437   -3.4174080   -1.3418702 
H     2.7763937   -1.4063681   -3.0697604 
