48
 energy: -9.170231172707 gnorm: 0.000654027380 xtb: 6.6.0 (2ccbbd7)
C           -4.41803091377846        2.92790600373563       -1.19542008068239
C           -3.06432579374257        3.12727223336673       -1.05819575548446
C           -4.91921273742506        2.15021085740636       -2.24002760355222
C           -4.01211329294159        1.58345525872118       -3.13510746417798
C           -2.66018719499950        1.78631679955146       -2.99069490028749
C           -2.16601363215660        2.56414389277548       -1.95390925379264
H           -2.68879488887036        3.72514542312464       -0.24546629274287
H           -4.39815372213645        0.98300592995954       -3.93931408946741
H           -1.96979332919316        1.33844982516564       -3.68470105095582
H           -5.10539570357011        3.36988096555885       -0.49646836988786
C           -0.69059251156066        2.74008916707826       -1.77400719540321
C           -0.01621145144179        1.52866029336626       -1.12064324634135
H           -0.49241491171457        3.62344296913367       -1.15928808626926
H           -0.22196445476396        2.94796770637794       -2.74176369790586
C            1.45379779022996        1.76073108878386       -1.00739764071585
O           -6.27364974023436        1.92915028347355       -2.40531037372977
H           -6.77792866522589        2.39355201863436       -1.70242213174158
O            1.87381431994256        2.93033611242104       -0.35747026486065
N           -0.57669429087312        1.22734710403928        0.19022037945790
H           -0.17744373757475        0.64380342040774       -1.75571316013765
H           -0.33395438921349        1.97483600755107        0.82684507769567
H           -1.58651703251629        1.18256554402589        0.14093158150223
N            2.36271634587907        0.86514533013427       -1.54889964027326
C            3.77882868710664        1.21580388905502       -1.63148011756612
H            2.06573540930322        0.32083943739570       -2.35647695337334
C            3.90991773305555        2.69616567640879       -1.89983471852611
O            4.54551086079443        3.09216747141215       -2.87279393361490
O            3.26899526954156        3.52631977589248       -0.96064921844153
H            2.97892792194398        2.92140982444665       -0.02180833775659
C            4.53334603012103        0.37874173229677       -2.67084053535761
H            4.21211706273363        1.01804027741700       -0.64047222041980
C            4.59821575626706       -1.07677084357577       -2.34207273765010
H            5.54911612991534        0.77421461072977       -2.77636807153599
H            4.06043046992394        0.51706406080870       -3.64747272231259
C            5.53297850823763       -2.02052620270226       -2.86315549923557
C            6.61054299117428       -1.90440424906550       -3.75848091746114
C            7.33052989219613       -3.02574786171713       -4.06650558586002
C            7.00919531335247       -4.27327476556862       -3.50635991871149
C            5.96462815630020       -4.41020456642340       -2.63332386231139
C            5.21422850033719       -3.27424451901377       -2.30394929610133
H            6.85180593222190       -0.94735529381942       -4.18596338520599
H            8.15916482932477       -2.95359301232023       -4.75135703482413
H            7.59673187323520       -5.13681421143595       -3.77112310093226
H            5.71109384774072       -5.36133244273078       -2.20058983870855
N            4.11925808761309       -3.09615007633937       -1.47596725466376
C            3.75440792289892       -1.77350541124132       -1.51364828578452
H            3.66372327963520       -3.83855476479765       -0.94205826131157
H            2.92694313928852       -1.34570472534182       -0.97542249832806
