48
 energy: -9.251082719421 gnorm: 0.000510807115 xtb: 6.6.0 (2ccbbd7)
C           -0.88644610659849        6.91640431855897       -1.62926787686939
C           -0.09288865963532        6.25532955386150       -0.72145337964499
C           -1.71549694275346        6.20710832468526       -2.49926926934086
C           -1.71134014260560        4.81474328713338       -2.42494266623802
C           -0.91409590421055        4.16395488700120       -1.51525356101319
C           -0.09819826138649        4.86953372952243       -0.64442009700822
H            0.54443149190087        6.81506105011145       -0.05873147428775
H           -2.34216505751026        4.26470596568118       -3.10040560729272
H           -0.89589551884025        3.08885995861212       -1.48125903944575
H           -0.87533253066009        7.99067334372554       -1.67779913562126
C            0.78299765950633        4.15285795376269        0.33684587195861
C            1.95038268475962        3.38284509490855       -0.30746039304223
H            0.17332411059441        3.45285160944861        0.91803849461976
H            1.17174550544967        4.88109966313617        1.05701175020425
C            1.54495803009492        2.03082139569030       -0.82829103751211
O           -2.52603772048549        6.84264117430242       -3.42076231905612
H           -2.41173966626708        7.81541454657454       -3.35371272569139
O            0.37572285643308        1.69581487770407       -0.82680963541696
N            2.55338064927797        4.16609405478359       -1.43249111537853
H            2.73289678424251        3.21407969066139        0.44504755738033
H            1.76950904892801        4.36904927634738       -2.08777962649555
H            2.82205406072602        5.10325682485971       -1.06223018371357
N            2.51750010558410        1.18260385118796       -1.31408141450504
C            3.96837576902559        1.35658232541405       -1.13609758929384
H            2.24177894124995        0.24596440581125       -1.60243367654780
C            4.35911372337205        2.79373673400988       -1.24930259609817
O            3.62677520983174        3.56075737539364       -2.13133062775566
O            5.37458598448978        3.30776733978005       -0.47652604729664
H            5.80830335675020        2.59294642881489        0.04041331901485
C            4.74294336445312        0.50952864574487       -2.14551618657188
H            4.20054166022853        1.01266616788542       -0.11830679903514
C            4.34766404316166       -0.92669030238129       -2.09978022716896
H            5.82004562719759        0.60613347666431       -1.97596910792981
H            4.55635597314555        0.90694587120501       -3.14786526318037
C            4.63121258888469       -1.84837975019513       -1.04883428093689
C            5.38662391247294       -1.75022337984389        0.13245756322362
C            5.44589334071367       -2.83398570803839        0.96447431144898
C            4.76843844899106       -4.02533518743087        0.65658327351424
C            4.02589583974994       -4.14271227953017       -0.48648858016195
C            3.95238989487595       -3.04450431546784       -1.35265693498666
H            5.90467814542161       -0.83661640994484        0.36370727999797
H            6.02097768935036       -2.77537462914639        1.87368543571669
H            4.83375975334458       -4.85935600533550        1.33561379899321
H            3.49979712621400       -5.04899633810227       -0.72744955569799
N            3.27970546066792       -2.84903312500442       -2.54627229403827
C            3.51940310743603       -1.57094747683149       -2.98643609401864
H            2.68303174080342       -3.54390868819438       -2.99897183475923
H            3.09757633567892       -1.13599834621316       -3.87821362711863
