48
Energy =
C    -0.3246543    0.3950727   -5.4155604 
C    -0.5308301   -0.1518659   -4.1905549 
C    -0.7161729    1.6725138   -5.6701499 
C    -1.3050266    2.3977193   -4.6918797 
C    -1.5102848    1.8573823   -3.4647813 
C    -1.1252775    0.5774733   -3.2063169 
H    -0.2137577   -1.1740010   -4.0065370 
H    -1.6076084    3.4182366   -4.8986178 
H    -1.9765723    2.4590399   -2.6897635 
H     0.1512559   -0.1915818   -6.1929373 
C    -1.3469369   -0.0212269   -1.8315767 
C    -0.3857291    0.5073078   -0.7175351 
H    -1.2601287   -1.1292111   -1.8831786 
H    -2.4098611    0.1603003   -1.5561619 
C     0.7281663    1.4339681   -1.2073918 
O    -0.5311299    2.2573836   -6.9281672 
H    -0.0369166    1.6652793   -7.5842300 
O     0.7586319    2.7712330   -0.8134932 
N    -1.1650902    1.1280664    0.3661805 
H     0.1544539   -0.3644454   -0.2836356 
H    -1.6877235    1.9561463   -0.0091292 
H    -1.8685548    0.4478587    0.7387008 
N     1.8293953    0.8951739   -1.9604000 
C     3.1497087    1.5300809   -1.7840889 
H     1.6858311    0.0070244   -2.4849740 
C     3.3335528    2.7183520   -2.7289830 
O     2.7666367    2.6930491   -3.9984943 
O     4.1752969    3.7840262   -2.3946221 
H     4.4882839    3.7356975   -1.4363559 
C     4.2751531    0.4771484   -1.9347393 
H     3.2249327    1.9319330   -0.7474911 
C     4.3760955   -0.1139853   -3.3298637 
H     4.0983276   -0.3395866   -1.2002398 
H     5.2505304    0.9325613   -1.6550372 
C     5.0584171    0.3827351   -4.3768076 
C     5.8316181    1.4960493   -4.4681370 
C     6.4189192    1.7824929   -5.6651553 
C     6.2340892    0.9583952   -6.7402092 
C     5.4609867   -0.1581298   -6.6244451 
C     4.8876616   -0.4185672   -5.4306499 
H     5.9800176    2.1569508   -3.6197017 
H     7.0312740    2.6758045   -5.7657319 
H     6.7022015    1.1970699   -7.6921361 
H     5.3039412   -0.8217482   -7.4679495 
N     4.0585732   -1.5241048   -5.1019022 
C     3.7736533   -1.2511057   -3.7235889 
H     3.7511360   -2.3212539   -5.7055527 
H     3.1555492   -1.8807059   -3.0877183 
