48
Energy =
C     1.3125464   -2.3789987   -0.5904606 
C     0.8775273   -1.2960354    0.1021979 
C     1.5850090   -2.2765048   -1.9191282 
C     1.4145136   -1.0906661   -2.5465042 
C     0.9857636   -0.0037628   -1.8574375 
C     0.7085432   -0.1023147   -0.5289599 
H     0.6687722   -1.3896512    1.1645964 
H     1.6346000   -1.0188680   -3.6059539 
H     0.8747538    0.9461627   -2.3771640 
H     1.4455761   -3.3256496   -0.0785240 
C     0.2732533    1.1197140    0.2484304 
C     1.4659008    1.7929861    0.9636694 
H    -0.5007036    0.8285333    0.9924921 
H    -0.2162203    1.8532255   -0.4333597 
C     2.5588420    2.1966866   -0.0241511 
O     2.0494165   -3.3693295   -2.6588213 
H     2.1245455   -4.2270865   -2.1233511 
O     2.2847294    3.2214700   -0.9225594 
N     0.9929782    2.9528169    1.7343216 
H     1.9192669    1.0662039    1.6763365 
H     0.5568492    3.6538094    1.0864426 
H     0.2525041    2.6542169    2.4114789 
N     3.8096363    1.4577926   -0.0414917 
C     4.7801190    1.6181754   -1.1747471 
H     3.5380699    0.4534105    0.0652148 
C     4.5166795    2.7500552   -2.1832875 
O     3.7722817    2.4988774   -3.3329726 
O     5.0320775    4.0335493   -1.9854187 
H     5.3976152    4.1501416   -1.0520463 
C     5.0066736    0.2527280   -1.8833927 
H     5.7529821    1.8862522   -0.7075948 
C     6.1605317    0.2930373   -2.8661729 
H     4.0684052   -0.0673523   -2.3821548 
H     5.2405637   -0.5294011   -1.1272905 
C     6.0960689    0.2524316   -4.2090546 
C     5.0198438    0.1621598   -5.0339282 
C     5.2339553    0.1365426   -6.3805362 
C     6.5050872    0.1983164   -6.8796152 
C     7.5706800    0.2868071   -6.0346553 
C     7.3337042    0.3118104   -4.7062132 
H     4.0069178    0.1190126   -4.6479017 
H     4.3877047    0.0705706   -7.0601834 
H     6.6663377    0.1793741   -7.9545014 
H     8.5854171    0.3377147   -6.4142621 
N     8.2976896    0.3969843   -3.6665410 
C     7.4546545    0.3778642   -2.5088351 
H     9.3397953    0.4534180   -3.7315620 
H     7.8192803    0.4236747   -1.4856918 
