48
Energy =
C     1.7011504    6.0462613   -2.2009616 
C     1.5121918    5.2475883   -1.1185085 
C     2.3011375    7.2577894   -2.0606507 
C     2.7113968    7.6615707   -0.8375565 
C     2.5308481    6.8657364    0.2467484 
C     1.9270087    5.6523981    0.1132070 
H     1.0402189    4.2735823   -1.2484754 
H     3.1904289    8.6294854   -0.7397566 
H     2.8738811    7.2094606    1.2186477 
H     1.3804755    5.7089241   -3.1811275 
C     1.7358013    4.7582320    1.3215888 
C     2.7622033    3.5967906    1.4085692 
H     0.7021632    4.3416797    1.3105007 
H     1.7953615    5.3589646    2.2559765 
C     2.5263867    2.5122517    0.3660904 
O     2.5058609    8.1062373   -3.1534369 
H     2.2189987    7.7069199   -4.0404647 
O     1.2218913    2.1575632    0.0389525 
N     4.1439494    4.1072202    1.3698636 
H     2.6048942    3.0841180    2.3836931 
H     4.3369376    4.5340912    0.4305786 
H     4.2555549    4.8676527    2.0796975 
N     3.5853911    1.6121188    0.0128399 
C     3.9098987    1.4413636   -1.4155060 
H     4.1355115    1.1553266    0.7728654 
C     4.0290726    2.7820333   -2.1475816 
O     3.0011028    3.2339652   -2.9702199 
O     5.1342966    3.6109567   -1.9510767 
H     5.8074747    3.1879028   -1.3283481 
C     2.8864850    0.4759372   -2.0497284 
H     4.9132465    0.9653989   -1.4837113 
C     3.3360856   -0.0083776   -3.4105924 
H     1.8916741    0.9718071   -2.1244588 
H     2.7350831   -0.3984000   -1.3799646 
C     4.2098066   -0.9956148   -3.6610545 
C     4.8754128   -1.8072449   -2.7997924 
C     5.7254262   -2.7409453   -3.3156608 
C     5.8969101   -2.8465737   -4.6684314 
C     5.2192950   -2.0186527   -5.5137254 
C     4.3825792   -1.1046582   -4.9790293 
H     4.7409335   -1.7225500   -1.7255692 
H     6.2696507   -3.4041427   -2.6479516 
H     6.5769700   -3.5923928   -5.0718010 
H     5.3462950   -2.0868466   -6.5887057 
N     3.5972625   -0.1472460   -5.6750457 
C     2.9540709    0.5261994   -4.5836516 
H     3.5107708    0.0178665   -6.7038508 
H     2.2721826    1.3682676   -4.6919967 
