48
 energy: -9.070092697782 gnorm: 0.000373560630 xtb: 6.6.0 (2ccbbd7)
C            2.82229975882009        1.90830913638262        5.43529504246561
C            3.66704832413660        1.30221713481648        4.53398272812836
C            1.54335322127010        2.31766106023925        5.05183918421593
C            1.15054714415524        2.09904428681374        3.73056147063583
C            2.00536390866931        1.49501860986071        2.84821985195660
C            3.26619627859610        1.07761050793234        3.22351922817737
H            4.65387979591076        0.99933096459058        4.83953984795883
H            0.17111397901262        2.41504546056909        3.41993900098549
H            1.73679252913492        1.27961548482815        1.66733851650012
H            3.14201996062530        2.07567650918320        6.44816275705466
C            4.19414353294411        0.44480836049801        2.22987442015591
C            3.50705471187840       -0.45704841285236        1.18668127954971
H            4.94335193416501       -0.14392228911481        2.76832543636564
H            4.75452288596426        1.22783502409709        1.70909084796122
C            2.75317170246015        0.35064530578249        0.15974087103379
O            0.67219925490164        2.92543605379774        5.93524896733928
H            1.09483500977158        3.01134045629950        6.81712523338577
O            1.63677965053042        1.03437177332202        0.57157573834391
N            4.46801956357730       -1.38396939383725        0.59026720445785
H            2.75308888031332       -1.07245512010531        1.70352125007831
H            5.25130594233736       -0.82159081234207        0.26584041517873
H            4.84048809409879       -2.01342851405826        1.28931449464106
N            3.12484243670367        0.45381818060061       -1.18564561173046
C            4.50169174217418        0.45188622315793       -1.68528254098519
H            2.51684128444194        1.02576607347123       -1.76348414780313
C            5.40915111551845        1.19982822844261       -0.73021114830980
O            6.43482171979847        0.65498882706699       -0.37816925819208
O            4.97326979564648        2.41580746417065       -0.32509885466933
H            4.07592406090239        2.59172946884659       -0.69225315130178
C            4.61955774168575        1.00108250644269       -3.10637937698732
H            4.82762316216761       -0.59557421623705       -1.70092911212182
C            6.02043345749533        0.94816655388331       -3.61734923199633
H            4.26551075109141        2.03584745032865       -3.12379051683750
H            3.96131504400111        0.44249981287659       -3.77934690964482
C            6.81353402797402       -0.22483206862580       -3.79345786747829
C            6.54979513130282       -1.59553548552621       -3.62478865097146
C            7.56245904601810       -2.48950973990234       -3.83712562846858
C            8.84422536937924       -2.06008751334787       -4.21783098343158
C            9.12320820848457       -0.73223979915040       -4.39163154260886
C            8.10007920403338        0.20011214347808       -4.17848046014534
H            5.56699186531090       -1.92423559051733       -3.33842819943382
H            7.37711378044555       -3.54286679833440       -3.70678418505002
H            9.62089200257179       -2.79083694782116       -4.37176743721469
H           10.10315007155309       -0.39340416781858       -4.67643519996464
N            8.07961947215538        1.58189010902693       -4.24760490464714
C            6.82977742322708        2.02363540357150       -3.89132461469187
H            8.89465491137850        2.16645025742153       -4.44254306842844
H            6.54435225743691        3.05951724056609       -3.80269359993705
