48
Energy =
C    -1.7638846    4.7441980   -5.7024954 
C    -1.2737318    4.0255275   -4.6607450 
C    -1.4366345    4.4081284   -6.9789392 
C    -0.6189631    3.3545796   -7.2036779 
C    -0.1258398    2.6324005   -6.1659212 
C    -0.4532038    2.9629131   -4.8866301 
H    -1.5439088    4.3061695   -3.6454829 
H    -0.3633391    3.0982993   -8.2259423 
H     0.5333468    1.7924944   -6.3684631 
H    -2.4178475    5.5883308   -5.5122470 
C     0.1025407    2.1722103   -3.7239001 
C     1.2692487    2.9102926   -3.0155729 
H     0.4395856    1.1644405   -4.0543214 
H    -0.7232082    1.9912476   -2.9965044 
C     1.5794850    2.2562184   -1.6916850 
O    -1.9254172    5.1267637   -8.0749455 
H    -2.5245164    5.9052925   -7.8231227 
O     0.6866110    2.3997181   -0.6371948 
N     2.4703808    2.9568261   -3.8753741 
H     0.9667280    3.9507801   -2.7509047 
H     2.7111443    1.9813366   -4.1724407 
H     2.1988611    3.4124016   -4.7808132 
N     2.5413890    1.2016615   -1.6364845 
C     3.9722651    1.5497022   -1.7790612 
H     2.1826733    0.2231223   -1.6022731 
C     4.2588154    2.9658755   -2.3418500 
O     3.4840794    3.6114613   -3.3488979 
O     5.3798535    3.6657081   -1.8854663 
H     5.9153113    3.1555716   -1.2005057 
C     4.7084806    0.4730371   -2.6118089 
H     4.4010936    1.5436416   -0.7534283 
C     4.7041478   -0.8807851   -1.9347023 
H     5.7685637    0.7796379   -2.7626091 
H     4.2700727    0.4025531   -3.6276569 
C     3.9144667   -1.9305490   -2.2191980 
C     2.9461717   -2.0668395   -3.1632144 
C     2.2760986   -3.2522576   -3.2381040 
C     2.5781717   -4.2722707   -2.3790773 
C     3.5521588   -4.1128733   -1.4387876 
C     4.2019808   -2.9313585   -1.3847595 
H     2.6974474   -1.2594361   -3.8443254 
H     1.4965773   -3.3866246   -3.9841654 
H     2.0385894   -5.2138086   -2.4446312 
H     3.8020713   -4.9107799   -0.7477732 
N     5.2336543   -2.5605325   -0.4815945 
C     5.4995825   -1.2172887   -0.9040867 
H     5.6772280   -3.1192420    0.2832126 
H     6.2397539   -0.5651774   -0.4461025 
