48
Energy =
C    -0.2711631    5.4286735   -1.0532924 
C    -0.4604589    4.2667436   -1.7280722 
C    -0.4015067    5.4618467    0.2997453 
C    -0.7213203    4.3318674    0.9688280 
C    -0.9079366    3.1675375    0.3010596 
C    -0.7770359    3.1255129   -1.0546179 
H    -0.3477897    4.2550302   -2.8105110 
H    -0.8245652    4.3702682    2.0470461 
H    -1.1593390    2.2705455    0.8606090 
H    -0.0132238    6.3303932   -1.5993839 
C    -0.9681963    1.8235467   -1.8067736 
C     0.3428847    1.0303980   -2.0262086 
H    -1.4306166    2.0362291   -2.7977481 
H    -1.7016196    1.1803398   -1.2718219 
C     1.3831131    1.8147789   -2.8185006 
O    -0.2103096    6.6404289    1.0262230 
H     0.0301515    7.4437232    0.4543268 
O     1.1234431    2.0955614   -4.1564439 
N     0.8702000    0.5098826   -0.7531171 
H     0.0930962    0.1572013   -2.6716415 
H     1.1080829    1.2909658   -0.0997466 
H     0.1461464   -0.0850372   -0.2872161 
N     2.4208649    2.5502086   -2.1462821 
C     3.8485893    2.3449889   -2.4884277 
H     2.1521097    3.1774394   -1.3561730 
C     4.4329706    3.5762388   -3.1736324 
O     5.5651131    4.1745452   -2.6318436 
O     3.8905229    4.1097636   -4.3423129 
H     3.0709783    3.5959711   -4.6327886 
C     4.1256600    1.0542516   -3.3086060 
H     4.4144464    2.2655348   -1.5341272 
C     3.7789215   -0.2125071   -2.5490450 
H     5.2098572    1.0033500   -3.5577348 
H     3.5986924    1.1058316   -4.2833379 
C     2.9316158   -1.1863320   -2.9287763 
C     2.1643167   -1.2968402   -4.0461260 
C     1.3771380   -2.4013192   -4.1871878 
C     1.3704217   -3.3723982   -3.2254737 
C     2.1528643   -3.2460585   -2.1169544 
C     2.9216616   -2.1433519   -1.9979811 
H     2.1604890   -0.5311425   -4.8147713 
H     0.7527672   -2.5097553   -5.0706947 
H     0.7417172   -4.2506831   -3.3467957 
H     2.1635858   -4.0096765   -1.3470441 
N     3.8098890   -1.8314962   -0.9348342 
C     4.3279397   -0.5696403   -1.3730232 
H     4.0269441   -2.3787513   -0.0710074 
H     5.0760527    0.0036240   -0.8318897 
