48
Energy =
C     1.2537016   -0.2847999    4.6111360 
C     1.3414856   -0.8164678    3.3656164 
C     0.6087320    0.8958688    4.8064582 
C     0.0537165    1.5355416    3.7529021 
C     0.1355998    1.0067165    2.5062584 
C     0.7900622   -0.1698203    2.2997361 
H     1.8545952   -1.7642288    3.2300726 
H    -0.4568929    2.4775548    3.9198556 
H    -0.3226044    1.5364751    1.6756510 
H     1.6985159   -0.8077180    5.4509336 
C     0.8833658   -0.7706476    0.9075905 
C     2.1652351   -0.3961037    0.1123406 
H    -0.0131336   -0.4821739    0.3145358 
H     0.8325368   -1.8786427    0.9929842 
C     2.1463174    1.0146233   -0.4675066 
O     0.4979437    1.4690860    6.0774025 
H     0.9509482    0.9359019    6.8113936 
O     1.6955588    2.0940051    0.2783383 
N     3.3885736   -0.6415601    0.8932619 
H     2.1877887   -1.0692937   -0.7737040 
H     3.4415767    0.0433053    1.6871807 
H     3.3631772   -1.6041790    1.3023218 
N     2.6446568    1.2630209   -1.7871245 
C     4.1043268    1.1739787   -1.9860138 
H     1.9598342    1.4301851   -2.5570100 
C     4.6683656    2.4722733   -2.5561548 
O     5.6808231    3.1307696   -1.8699923 
O     4.2544551    2.9822033   -3.7892451 
H     3.4787198    2.4627051   -4.1679180 
C     4.4064870   -0.0390172   -2.8902215 
H     4.6299082    1.0372121   -1.0078376 
C     5.8953308   -0.2626474   -3.0392931 
H     3.9474841    0.1038353   -3.8931825 
H     3.9385400   -0.9512494   -2.4633754 
C     6.6921763   -0.9563728   -2.2113606 
C     6.3860440   -1.6444294   -1.0816360 
C     7.3969955   -2.2597309   -0.4037501 
C     8.6843774   -2.1760722   -0.8578040 
C     8.9686288   -1.4747335   -1.9920238 
C     7.9506334   -0.8776232   -2.6466320 
H     5.3666541   -1.7038166   -0.7140066 
H     7.1784997   -2.8143563    0.5054255 
H     9.4854630   -2.6649781   -0.3091701 
H     9.9851262   -1.3903314   -2.3609791 
N     8.0326425   -0.0870794   -3.8241365 
C     6.6578558    0.2817816   -4.0040737 
H     8.8686706    0.1515247   -4.4055864 
H     6.2931572    0.9553828   -4.7797194 
