48
Energy =
C    -2.9662850    2.2694702   -1.1230074 
C    -1.7837691    1.7674709   -0.6860991 
C    -3.9497888    1.4311637   -1.5467074 
C    -3.7418967    0.0946887   -1.5298315 
C    -2.5608538   -0.4128716   -1.0945766 
C    -1.5749427    0.4221049   -0.6668552 
H    -1.0023076    2.4494285   -0.3553726 
H    -4.5331729   -0.5632961   -1.8710612 
H    -2.4107538   -1.4890279   -1.0940001 
H    -3.1209480    3.3428891   -1.1346503 
C    -0.2477312   -0.1315588   -0.1993052 
C     0.8657661    0.0688360   -1.2532729 
H    -0.3303113   -1.2110423    0.0595344 
H     0.0319730    0.3894659    0.7440182 
C     2.2363187   -0.2047940   -0.6537261 
O    -5.1793643    1.9157479   -2.0056992 
H    -5.2560708    2.9265834   -1.9800882 
O     2.6875784   -1.5158967   -0.5357770 
N     0.6230683   -0.7751716   -2.4356017 
H     0.8804170    1.1330094   -1.5749314 
H     0.5592728   -1.7792813   -2.1417319 
H    -0.2900834   -0.5146749   -2.8752318 
N     2.8687036    0.7889296    0.1615083 
C     3.7907997    1.7820720   -0.4280986 
H     2.6623881    0.7814274    1.1854898 
C     3.1381485    3.1476986   -0.6114971 
O     1.7617521    3.2601865   -0.7565675 
O     3.9109829    4.2991562   -0.7635670 
H     4.8905909    4.1306931   -0.5855819 
C     4.5282387    1.2705815   -1.6992870 
H     4.5856084    1.9482601    0.3321023 
C     3.6849415    1.2127949   -2.9678552 
H     4.9638188    0.2768682   -1.4628002 
H     5.3957439    1.9357301   -1.9024570 
C     3.4099139    0.1230903   -3.7129294 
C     3.7516785   -1.1801100   -3.5254328 
C     3.3440108   -2.0990759   -4.4466553 
C     2.6152908   -1.7102847   -5.5350531 
C     2.2890452   -0.3993501   -5.7094240 
C     2.6993649    0.4913783   -4.7826057 
H     4.3188080   -1.5068939   -2.6603279 
H     3.5935302   -3.1484933   -4.3083580 
H     2.2913353   -2.4504545   -6.2626326 
H     1.7120742   -0.0743791   -6.5688388 
N     2.4796626    1.8934269   -4.7936418 
C     3.1597473    2.2866670   -3.5941162 
H     1.9726967    2.4791703   -5.4979978 
H     3.2550827    3.3208506   -3.2618501 
