48
Energy =
C     0.2914253   -4.8549494   -0.6531796 
C     0.5250310   -3.5402417   -0.4116780 
C     0.7502822   -5.8005176    0.2097724 
C     1.4407544   -5.4226786    1.3095474 
C     1.6774268   -4.1092642    1.5562538 
C     1.2172697   -3.1588762    0.6969824 
H     0.1548326   -2.7959475   -1.1125047 
H     1.8025678   -6.1866746    1.9887856 
H     2.2392619   -3.8274632    2.4428256 
H    -0.2619388   -5.1476036   -1.5389414 
C     1.4912983   -1.6937544    0.9543828 
C     2.6394649   -1.1500131    0.0725972 
H     1.7274570   -1.5157633    2.0279989 
H     0.5594442   -1.1191223    0.7529210 
C     2.7214114    0.3620701    0.1665713 
O     0.5284573   -7.1639860   -0.0102404 
H     0.0001956   -7.3636248   -0.8525891 
O     2.8202414    0.9633430    1.4193077 
N     3.9250105   -1.7605147    0.4489955 
H     2.4228969   -1.3874874   -0.9957287 
H     4.1075303   -1.6042724    1.4697744 
H     3.8891142   -2.7943533    0.2872353 
N     2.3048284    1.1582134   -0.9509472 
C     3.1984560    2.3270948   -1.1455109 
H     1.3452389    1.4922159   -0.6982782 
C     2.5483957    3.4021351   -2.0147178 
O     1.4749581    3.0853739   -2.8383797 
O     3.0347989    4.7107755   -2.0285697 
H     3.7991940    4.8428436   -1.3825556 
C     4.5619851    1.8749612   -1.7319259 
H     3.3867439    2.8332586   -0.1681055 
C     4.4247383    1.0530799   -2.9992097 
H     5.1000559    1.2706952   -0.9671145 
H     5.2114904    2.7557199   -1.9278923 
C     4.3022829    1.5059372   -4.2592602 
C     4.2916267    2.7780278   -4.7358741 
C     4.1586414    2.9674685   -6.0799894 
C     4.0492512    1.8954455   -6.9213240 
C     4.0740446    0.6269807   -6.4234007 
C     4.2014481    0.4653094   -5.0896012 
H     4.3849151    3.6336722   -4.0755327 
H     4.1367620    3.9774387   -6.4828284 
H     3.9423094    2.0550908   -7.9913723 
H     3.9931959   -0.2349111   -7.0769192 
N     4.2650549   -0.7626096   -4.3791465 
C     4.4129789   -0.2914567   -3.0337191 
H     4.2212730   -1.7430833   -4.7400447 
H     4.5287961   -0.9371206   -2.1673922 
