48
Energy =
C     2.0413861   -4.0719165   -2.1359984 
C     1.2448770   -2.9849888   -2.3012304 
C     2.1302795   -4.6750137   -0.9206575 
C     1.4204681   -4.1860100    0.1213914 
C     0.6237498   -3.0989233   -0.0382806 
C     0.5290839   -2.4922443   -1.2532130 
H     1.1906027   -2.5036933   -3.2761692 
H     1.5004343   -4.6756935    1.0855738 
H     0.0645585   -2.7180347    0.8122684 
H     2.6096872   -4.4541089   -2.9773184 
C    -0.3410849   -1.2640849   -1.4217270 
C     0.3673658    0.0146862   -0.9093634 
H    -1.2893070   -1.4232139   -0.8634614 
H    -0.6321086   -1.1265612   -2.4882244 
C     1.5205816    0.4672574   -1.8025168 
O     2.9440453   -5.7937676   -0.7155479 
H     3.4336053   -6.1028814   -1.5480821 
O     1.6846207   -0.0871298   -3.0707174 
N    -0.6134687    1.0990981   -0.7489065 
H     0.8168195   -0.2021256    0.0862721 
H    -1.0568407    1.3075364   -1.6767492 
H    -1.3734726    0.8022330   -0.0932720 
N     2.4615928    1.4387293   -1.3017137 
C     3.7584662    1.6832962   -1.9688555 
H     2.2465019    1.8999131   -0.3891426 
C     3.6261843    2.6459983   -3.1522907 
O     2.5467589    2.5588452   -4.0215848 
O     4.6160883    3.5940986   -3.4282435 
H     5.3856623    3.5515360   -2.7768879 
C     4.4717436    0.3600463   -2.3405518 
H     4.3976119    2.2024848   -1.2205938 
C     5.9485854    0.5655179   -2.5925834 
H     4.0040268   -0.1016867   -3.2369283 
H     4.3398201   -0.3719308   -1.5140553 
C     6.5382736    0.8536768   -3.7649253 
C     5.9957462    1.0137554   -4.9999410 
C     6.8263313    1.3191236   -6.0376758 
C     8.1706818    1.4579778   -5.8294465 
C     8.6927148    1.2952893   -4.5806766 
C     7.8506709    0.9937221   -3.5699858 
H     4.9265005    0.9192699   -5.1699417 
H     6.4143882    1.4612349   -7.0342426 
H     8.8245758    1.7059107   -6.6618612 
H     9.7557899    1.4085392   -4.3974064 
N     8.1848177    0.8001552   -2.2027519 
C     6.8952692    0.5330012   -1.6387235 
H     9.1197503    0.8435654   -1.7361652 
H     6.7152676    0.3413522   -0.5834156 
