48
Energy =
C    -1.8347244   -0.7526065   -7.7573393 
C    -1.4324797   -0.5489682   -6.4772415 
C    -1.5922302    0.1888988   -8.7081616 
C    -0.9474400    1.3286526   -8.3708626 
C    -0.5426969    1.5377492   -7.0925447 
C    -0.7866930    0.6002608   -6.1361137 
H    -1.6282614   -1.3139542   -5.7301023 
H    -0.7590016    2.0703762   -9.1392843 
H    -0.0228611    2.4589028   -6.8419112 
H    -2.3490638   -1.6710454   -8.0189879 
C    -0.3199319    0.8250445   -4.7150057 
C     1.1884056    0.5362515   -4.5420867 
H    -0.9025466    0.2002231   -4.0004669 
H    -0.5351655    1.8789050   -4.4285177 
C     1.6554206    0.9789795   -3.1698049 
O    -1.9921397    0.0102821  -10.0364083 
H    -2.4717161   -0.8667072  -10.2083803 
O     1.0775334    0.4409560   -2.0247196 
N     1.4788287   -0.8936393   -4.7534512 
H     1.7669567    1.1425885   -5.2791181 
H     0.8154827   -1.4729716   -4.1836504 
H     1.3142069   -1.1371381   -5.7590513 
N     2.6670378    1.9880972   -3.0414761 
C     3.8230374    1.4756817   -2.2673349 
H     2.2041079    2.7426811   -2.4810209 
C     4.7889307    2.5973238   -1.8982912 
O     5.3141515    2.6478383   -0.6136537 
O     5.2199323    3.5343721   -2.8375321 
H     4.7794226    3.3874513   -3.7344055 
C     4.5628887    0.3646482   -3.0701256 
H     3.4624560    1.0848068   -1.2809341 
C     4.7254316   -0.8860110   -2.2390977 
H     5.5539263    0.7120121   -3.4377426 
H     4.0097641    0.0999846   -3.9984737 
C     5.7791557   -1.2214742   -1.4787250 
C     6.9554763   -0.5717424   -1.2824901 
C     7.8661686   -1.1243796   -0.4308463 
C     7.5891137   -2.3007945    0.2090828 
C     6.3969768   -2.9298670    0.0046751 
C     5.5136740   -2.3657069   -0.8454057 
H     7.1724175    0.3733002   -1.7725826 
H     8.8132889   -0.6203225   -0.2525977 
H     8.3181007   -2.7305794    0.8915278 
H     6.1560375   -3.8561569    0.5150048 
N     4.2123382   -2.8369427   -1.1686024 
C     3.7636261   -1.8088978   -2.0655862 
H     3.7232289   -3.7018853   -0.8405823 
H     2.7600282   -1.7395650   -2.4907420 
