48
Energy =
C    -0.1507120   -1.1059210   -4.9224250 
C    -0.3480525   -1.0566846   -3.5809145 
C    -0.2484662    0.0256072   -5.6695014 
C    -0.5430444    1.1999633   -5.0678989 
C    -0.7472576    1.2541284   -3.7277226 
C    -0.6456239    0.1255201   -2.9716649 
H    -0.2674426   -1.9719457   -2.9990146 
H    -0.6133539    2.0966279   -5.6733107 
H    -0.9896567    2.2068520   -3.2659162 
H     0.0833242   -2.0535188   -5.3956377 
C    -0.8696836    0.1781376   -1.4722704 
C     0.3848807    0.5859113   -0.6561178 
H    -1.2143676   -0.8183225   -1.1135995 
H    -1.7046812    0.8758364   -1.2445197 
C     1.5863156   -0.3197806   -0.8981848 
O    -0.0557191    0.0073621   -7.0543922 
H     0.1596309   -0.9098506   -7.4289693 
O     1.3893900   -1.6929238   -1.0121171 
N     0.7144520    2.0063226   -0.8626599 
H     0.1370415    0.4474794    0.4200322 
H     1.0525783    2.1667311   -1.8408692 
H    -0.1322257    2.6021302   -0.7111932 
N     2.9021278    0.1403495   -0.5593837 
C     3.9523162    0.1481207   -1.5951873 
H     3.0926722    0.4259386    0.4270588 
C     3.7150228    1.2241463   -2.6555781 
O     4.4994516    2.3702597   -2.6422751 
O     2.7513220    1.0933010   -3.6580169 
H     2.1928202    0.2650067   -3.5378747 
C     4.1571031   -1.2714884   -2.1745062 
H     4.9054046    0.4426195   -1.0987128 
C     5.3709852   -1.3358594   -3.0741380 
H     3.2585653   -1.6121527   -2.7331315 
H     4.2593020   -1.9953767   -1.3363451 
C     6.6366965   -1.5837963   -2.7015295 
C     7.1445081   -1.8644964   -1.4736987 
C     8.4885213   -2.0678459   -1.3597387 
C     9.2958512   -1.9841998   -2.4604784 
C     8.7640729   -1.6951580   -3.6821585 
C     7.4313373   -1.5017577   -3.7697862 
H     6.5079477   -1.9234098   -0.5962348 
H     8.9208267   -2.2936590   -0.3878163 
H    10.3666284   -2.1437405   -2.3606474 
H     9.3910275   -1.6171104   -4.5639031 
N     6.6856245   -1.1735028   -4.9333717 
C     5.3606419   -1.0734504   -4.3936246 
H     7.0158002   -1.0472769   -5.9178682 
H     4.4817229   -0.7755450   -4.9665433 
