48
 energy: -9.201060257052 gnorm: 0.000791153304 xtb: 6.6.0 (2ccbbd7)
C            0.20347288973879        5.92552720345440       -3.02530458069258
C            1.04194931753746        5.02699126548738       -3.64118798569484
C           -0.61344333685213        5.52493713584303       -1.96819240603507
C           -0.54771471330357        4.19519323281134       -1.55478709841563
C            0.29670203664452        3.30651062923385       -2.17452284832566
C            1.10001302818470        3.69927930874666       -3.23753553431133
H            1.67183370040880        5.35275455595594       -4.45142842434893
H           -1.17179623051210        3.88465011810282       -0.73543861486793
H            0.33102450524642        2.28885663019781       -1.82998523751418
H            0.17122093054657        6.94940935396993       -3.35231364884887
C            2.05630976789306        2.77450618698717       -3.92723673441245
C            1.76816723792790        1.27698572123465       -3.84483676693927
H            3.18050733982951        2.98713004714306       -3.46082656910743
H            2.13943366027500        3.06590025199680       -4.97667908167208
C            1.78504603259370        0.75137137739160       -2.42416838895313
O           -1.47078273392441        6.40056655707718       -1.32970653919698
H           -1.38835381472623        7.29704009211476       -1.72046408577624
O            0.79728879845472        0.14202771053869       -2.05909748941385
N            0.48754492246333        0.95597923100676       -4.45925413167710
H            2.52405315442243        0.72982401932107       -4.42475238812204
H            0.24116552441059        0.00958550860600       -4.18047504502709
H           -0.22151617173211        1.54671233759449       -4.04905262390772
N            2.83275133626816        0.95696888595527       -1.53208165757203
C            4.28641961309062        1.01769259399877       -1.83307542499827
H            2.66691599840639        0.63634405216671       -0.58039836642042
C            4.77931233057102        2.43318715443636       -2.00981462371055
O            5.63794863635547        2.84937951763529       -1.26190029701110
O            4.24260227960306        3.22875350562826       -3.06654169315621
H            4.54198738883735        4.20829533207152       -2.99418516264101
C            4.75636565505020        0.09598587751566       -2.95795723857287
H            4.79566817000159        0.66074783631009       -0.92160373640120
C            4.49183046197009       -1.35212612907607       -2.69624975493533
H            5.83208554880023        0.24145846219554       -3.10295286757589
H            4.30784159219075        0.39352518175098       -3.90551075350248
C            5.45592111250735       -2.40392973565126       -2.75826089081270
C            6.83389554059562       -2.42559114745407       -3.03770618496703
C            7.49207337134548       -3.62383068372567       -3.00273102908675
C            6.81687276293379       -4.81610440178531       -2.69491033778919
C            5.47697987943114       -4.81989640057694       -2.41946234594136
C            4.78437315267381       -3.60296884659653       -2.44962860486755
H            7.35091719321482       -1.51165811509299       -3.26961093183898
H            8.54832854578211       -3.65579880501525       -3.21281006605576
H            7.36629696911464       -5.74275011752444       -2.67429553314874
H            4.95204893561002       -5.72718179438805       -2.18000494892240
N            3.45904832666410       -3.28738526525357       -2.21105955516543
C            3.29410464076773       -1.93435525247407       -2.35798595221787
H            2.73787005366265       -3.95912570807338       -1.94175756199548
H            2.35974559729214       -1.42135334881767       -2.19900976247603
