48
Energy =
C    -1.5359811    0.0930665   -4.6143543 
C    -0.3166032   -0.2684815   -4.1384128 
C    -2.5310593   -0.8269493   -4.7120731 
C    -2.3011821   -2.1020217   -4.3272520 
C    -1.0860169   -2.4671627   -3.8463084 
C    -0.0812233   -1.5519084   -3.7501240 
H     0.4619912    0.4858040   -4.0459659 
H    -3.1046480   -2.8262071   -4.4062663 
H    -0.9271457   -3.4972211   -3.5393703 
H    -1.7161190    1.1217930   -4.9081725 
C     1.2806781   -1.9713795   -3.2222544 
C     1.5556798   -1.5915728   -1.7441754 
H     2.1956688   -1.5439294   -3.9204018 
H     1.3839476   -3.0759144   -3.3140626 
C     1.8508600   -0.1068174   -1.5491855 
O    -3.7957607   -0.4894238   -5.2036278 
H    -3.9002143    0.4926269   -5.4342907 
O     0.8325230    0.8203388   -1.7262512 
N     0.4757522   -2.0583803   -0.8590252 
H     2.4898107   -2.1195519   -1.4461126 
H    -0.3781244   -1.4662446   -1.0118071 
H     0.2187148   -3.0460314   -1.0887959 
N     2.9965676    0.2884426   -0.7886498 
C     4.2174370    0.7852770   -1.4606174 
H     2.9671312    0.1035097    0.2381104 
C     4.1880210    2.2905441   -1.7108356 
O     2.9991567    2.9385309   -2.0130341 
O     5.3712602    3.0280869   -1.7821333 
H     6.1840474    2.4781091   -1.5483037 
C     4.6318334   -0.0455835   -2.7093688 
H     5.0427597    0.6428679   -0.7290417 
C     3.7338831    0.0645091   -3.9290973 
H     4.7002595   -1.1100441   -2.3999594 
H     5.6579445    0.2514212   -3.0206901 
C     3.1011837   -1.1136610   -4.6195097 
C     4.0441762   -2.2490208   -4.9698884 
C     4.0599734   -2.7584716   -6.2181927 
C     3.3773208   -2.1754674   -7.2319136 
C     2.7007488   -1.0148000   -7.0724358 
C     2.5675584   -0.4526914   -5.8581139 
H     4.6167893   -2.7367016   -4.1862083 
H     4.6627895   -3.6404377   -6.4229802 
H     3.4617634   -2.5996691   -8.2295198 
H     2.3478934   -0.4791463   -7.9477211 
N     2.5687126    0.9610496   -5.7060985 
C     3.4080783    1.1974391   -4.5710511 
H     2.0723099    1.6725186   -6.2915050 
H     3.7757700    2.1865315   -4.3037677 
