48
Energy =
C    -1.4013267   -0.8529473   -0.6620719 
C    -0.2968816   -0.0765679   -0.8037245 
C    -2.5160616   -0.3554499   -0.0631629 
C    -2.5182658    0.9188485    0.3890811 
C    -1.4181549    1.6994840    0.2485693 
C    -0.2975091    1.2066505   -0.3492081 
H     0.5814339   -0.4934721   -1.2843071 
H    -3.4112539    1.3100786    0.8640370 
H    -1.4445155    2.7210863    0.6158694 
H    -1.3915819   -1.8728190   -1.0298326 
C     0.9292932    2.0817789   -0.5132988 
C     0.9922588    2.8043684   -1.8846484 
H     1.8448754    1.4720106   -0.3568674 
H     0.9529893    2.8426481    0.2986574 
C     1.1241415    1.8379371   -3.0688418 
O    -3.6683106   -1.1323039    0.1005519 
H    -3.5887033   -2.0671128   -0.2820689 
O     0.0623241    1.6561784   -3.9476424 
N    -0.1524120    3.7171221   -2.0442816 
H     1.9081818    3.4320438   -1.8966741 
H    -1.0390295    3.1663876   -2.1489518 
H    -0.2585796    4.3233081   -1.1980495 
N     2.3056786    1.0339298   -3.2715217 
C     3.4996141    1.8275567   -3.6498902 
H     2.4854430    0.5141804   -2.3844068 
C     3.2860045    2.7402819   -4.8658183 
O     3.9441594    3.9637068   -4.8999068 
O     2.5204649    2.3635525   -5.9677858 
H     2.0837258    1.4637982   -5.8194948 
C     4.6914637    0.8670627   -3.8685291 
H     3.7865959    2.5031785   -2.8124928 
C     4.4743487   -0.0705395   -5.0382321 
H     4.8580209    0.2639277   -2.9483689 
H     5.6267572    1.4512115   -4.0155934 
C     4.8716849    0.1125386   -6.3084136 
C     5.5661948    1.1377227   -6.8668050 
C     5.8272888    1.0917071   -8.2047391 
C     5.3944385    0.0353307   -8.9573938 
C     4.6947247   -0.9801958   -8.3766106 
C     4.4504933   -0.9125987   -7.0509747 
H     5.8967645    1.9877350   -6.2776738 
H     6.3737815    1.9048387   -8.6765011 
H     5.6009600    0.0097478  -10.0243281 
H     4.3347962   -1.8201210   -8.9606682 
N     3.7246786   -1.8453078   -6.2637912 
C     3.7809337   -1.2203020   -4.9748247 
H     3.2764381   -2.7454386   -6.5501035 
H     3.2970365   -1.6060216   -4.0802510 
