48
Energy =
C    -2.5935282    0.5436727   -1.3511324 
C    -1.8239351   -0.0984367   -2.2667033 
C    -2.8394136    1.8750724   -1.4787325 
C    -2.3082142    2.5561694   -2.5198058 
C    -1.5403892    1.9184722   -3.4393235 
C    -1.3027641    0.5838238   -3.3236114 
H    -1.6090445   -1.1590840   -2.1409593 
H    -2.4987729    3.6205680   -2.6031564 
H    -1.1078846    2.4866077   -4.2592598 
H    -3.0048620   -0.0077229   -0.5123767 
C    -0.4107189   -0.1217814   -4.3219576 
C     1.0820012    0.0607105   -3.9751017 
H    -0.6064733    0.2784620   -5.3409428 
H    -0.6521044   -1.2079543   -4.3607761 
C     1.4021217   -0.4472659   -2.5755894 
O    -3.6289296    2.5652421   -0.5532910 
H    -3.9828951    1.9866518    0.2002681 
O     1.0678727   -1.7542697   -2.2324493 
N     1.9164881   -0.6142580   -4.9857964 
H     1.3172681    1.1485098   -3.9844203 
H     1.6724746   -1.6350134   -5.0167838 
H     1.7121519   -0.2173581   -5.9338356 
N     1.7098277    0.4689311   -1.5172436 
C     3.0225606    1.1495162   -1.4342543 
H     0.9812120    0.6048683   -0.7818090 
C     2.9031034    2.6325061   -1.7818373 
O     1.9124624    3.0767954   -2.6488214 
O     3.8170267    3.5644085   -1.2882547 
H     4.4877486    3.1494446   -0.6601736 
C     4.1348952    0.4657644   -2.2770755 
H     3.3320370    1.1205163   -0.3670486 
C     4.5510361   -0.8745203   -1.7066241 
H     5.0352107    1.1179805   -2.3107915 
H     3.8176115    0.3538753   -3.3387259 
C     5.3141282   -1.0815350   -0.6206209 
C     5.8959628   -0.1860295    0.2186980 
C     6.6370484   -0.6606325    1.2608496 
C     6.7869132   -2.0074397    1.4447931 
C     6.1981087   -2.8878154    0.5864087 
C     5.4692967   -2.3936285   -0.4361357 
H     5.7834031    0.8833796    0.0721287 
H     7.1121604    0.0352582    1.9484476 
H     7.3791954   -2.3785811    2.2777971 
H     6.3088149   -3.9593489    0.7160232 
N     4.7879702   -3.1319504   -1.4390685 
C     4.2209348   -2.0726176   -2.2223874 
H     4.7262558   -4.1664185   -1.5818210 
H     3.6013925   -2.2269867   -3.1039514 
