48
 energy: -9.080229740744 gnorm: 0.000880720965 xtb: 6.6.0 (2ccbbd7)
C           -3.69503263557435       -0.68159622343885       -0.97604329321457
C           -2.48832992585295       -0.21664793861762       -1.44345703429006
C           -3.76260054787455       -1.41598358942609        0.20865511937984
C           -2.57769628652424       -1.66073003889139        0.90225469184664
C           -1.37552221115989       -1.19050908330845        0.42977141399466
C           -1.31151737041751       -0.46665959705379       -0.75168183402350
H           -2.44881961860649        0.35246276455366       -2.35669613112922
H           -2.63000907501503       -2.22288559582322        1.81748096723073
H           -0.46856956639882       -1.37957172428030        0.97804651709166
H           -4.60102745589737       -0.48173938846578       -1.51957775834294
C           -0.00526234659505        0.07857713056522       -1.23673995013750
C            0.41805575525880        1.36351456209786       -0.51176849170020
H           -0.06600779893663        0.27984306706107       -2.31008844110296
H            0.77362869838044       -0.68290028446362       -1.12295734561036
C            1.77850456949919        1.80267792113207       -0.93385818635643
O           -4.95912882624240       -1.89889605416324        0.70472666318832
H           -5.69808455848189       -1.63640469485372        0.11399705372314
O            2.33070166910485        2.98447519603172       -0.52288898921873
N           -0.54483671999251        2.44161907488428       -0.70147223743306
H            0.46102884234436        1.16090488363115        0.57012601879126
H           -0.46878808498785        2.80882414737072       -1.64208956859005
H           -1.49201740083425        2.10880445062396       -0.56740686279705
N            2.58715861929600        1.01439470920085       -1.78794983098450
C            4.01523615429374        1.29773573747959       -1.68711098858400
H            2.32806996575450        1.06198592905856       -2.77000763915568
C            4.20798221983738        2.75196696893245       -2.01617922859029
O            3.27109409854982        3.58075417255712       -1.52509487954509
O            5.25832482429427        3.19369474435258       -2.79132709342555
H            5.92412458573314        2.48647255724687       -2.93088025119857
C            4.83037443804734        0.31585603099968       -2.53773749647758
H            4.28037810797560        1.15674846293009       -0.62849743009211
C            4.49342058074611       -1.09935591717244       -2.20827153806080
H            5.90323733137311        0.47453942053214       -2.39067075351396
H            4.63081149652075        0.50117577287584       -3.59708762359508
C            3.41839753654376       -1.86340801529232       -2.75484607549431
C            2.48089620629748       -1.60890609224613       -3.77170451161375
C            1.53136148531121       -2.55551091553070       -4.04136452089586
C            1.48531009734195       -3.76353979229528       -3.32623635165518
C            2.39074064017328       -4.03597361370373       -2.33745333333696
C            3.37107440385272       -3.07924434266909       -2.04503346170334
H            2.52435265025347       -0.68792719607312       -4.32495938248497
H            0.80643434414382       -2.37493439317431       -4.81773185100104
H            0.72403400432297       -4.48811096566101       -3.56393359300713
H            2.36313620096055       -4.95793963536216       -1.78476617352351
N            4.38570424067275       -3.05162819321269       -1.10413835641621
C            5.04768325416724       -1.85243126108329       -1.20222610322713
H            4.57395103631224       -3.79462600239419       -0.42859282970726
H            5.85896124248260       -1.54245460958606       -0.56362610883821
