48
 energy: -9.066545661616 gnorm: 0.000876303167 xtb: 6.6.0 (2ccbbd7)
C           -0.60294776611127       -0.46612669163652       -1.58455587574967
C            0.11933151850131       -0.27303179584227       -0.43129745335389
C           -0.24828508776982       -1.47449646401620       -2.48169415854572
C            0.84893227957010       -2.27840786939804       -2.17322699674624
C            1.56337654489579       -2.07998631999259       -1.01600588557749
C            1.21092492345589       -1.07355563994830       -0.12856962359822
H           -0.14002267909140        0.52458373544667        0.24450598331855
H            1.11746731736622       -3.05938360180332       -2.86200258328416
H            2.40899478310758       -2.70673338632561       -0.79017196027940
H           -1.44406426376585        0.16464325124343       -1.80961370764819
C            2.02485445895404       -0.81080253178125        1.10099608930541
C            2.90388371824288        0.43806762280510        0.97613769271687
H            2.64451020517308       -1.68338289948489        1.32944728005392
H            1.35659739160459       -0.68173126185982        1.95788337193268
C            2.04367567977477        1.67970516477917        0.88829653663640
O           -0.94644896043016       -1.69147809954767       -3.65447235818081
H           -1.70049315988191       -1.06618659620605       -3.71902794787865
O            1.20297480906358        1.83607378336451        1.75092104615932
N            3.81438187624455        0.58376104135244        2.10191782894836
H            3.51300482537129        0.34709768018675        0.06696432585026
H            3.27824303175039        0.85109604961341        2.91685332806043
H            4.28459085995734       -0.28923264936922        2.30738691680253
N            2.21422452867615        2.60283939589760       -0.12434887430894
C            3.28003313671461        2.52935560890666       -1.13031660768331
H            1.80498268988514        3.52623226852509        0.00092195984068
C            3.47731319700870        3.86043159103107       -1.79069031223562
O            4.73896888455471        4.23051806080000       -2.15415306135058
O            2.36235009168308        4.62853790511436       -2.03380804265326
H            1.54487105008774        4.10172445024186       -1.87188844474480
C            2.99614907216222        1.43947641773120       -2.18674180076363
H            4.20453967241936        2.28712884514742       -0.58699710846515
C            4.19721170845991        0.63500286676017       -2.56133499302173
H            2.57184477904914        1.90185566866833       -3.08386363193610
H            2.21740983117387        0.76817983706686       -1.81243362248045
C            5.52624906565747        1.11109964162333       -2.76859275022095
C            6.11386803485292        2.37968094232846       -2.67990480593819
C            7.44652701164369        2.51409394545896       -2.92909551753762
C            8.23489208173858        1.40254398504966       -3.27044188816225
C            7.68822950465986        0.15163044670618       -3.36428267969892
C            6.31905888466230       -0.00304493199172       -3.11060967844995
H            5.40858790114320        3.34759804171520       -2.39190231715197
H            7.89939309048759        3.48942843506157       -2.86433474929599
H            9.28602313148888        1.54066903452707       -3.46217315293786
H            8.28260952038442       -0.70555589994769       -3.62508557447526
N            5.49390582105734       -1.11364051304420       -3.11452606809315
C            4.22141537538258       -0.71921707576088       -2.78549662108796
H            5.79595667409519       -2.06340388528965       -3.33908695163751
H            3.37483715602406       -1.37928872287776       -2.70085168652552
