48
Energy =
C     1.4684102    5.2741988   -2.4182979 
C     1.6242711    4.9976043   -1.0991082 
C     0.4665832    4.6886261   -3.1267117 
C    -0.3800936    3.8368105   -2.5062058 
C    -0.2231348    3.5482398   -1.1896473 
C     0.7889912    4.1196825   -0.4782505 
H     2.4282529    5.4807839   -0.5522904 
H    -1.1777458    3.3790412   -3.0813741 
H    -0.9013464    2.8421634   -0.7160428 
H     2.1555223    5.9561134   -2.9079319 
C     0.9869724    3.7608349    0.9807317 
C     2.0498894    2.6560145    1.2373493 
H     0.0165774    3.4203506    1.4082230 
H     1.2473124    4.6769873    1.5551247 
C     1.9762892    1.4660350    0.2813839 
O     0.2860514    4.9395600   -4.4908151 
H     0.9898377    5.5519735   -4.8904722 
O     1.2719776    0.3358160    0.6754739 
N     3.4033762    3.2293615    1.3233830 
H     1.8144492    2.2078950    2.2331127 
H     3.6177250    3.8062568    0.4767973 
H     3.4621470    3.8744428    2.1460519 
N     2.4081909    1.5458462   -1.0849773 
C     3.8562643    1.5583460   -1.3592181 
H     1.6907030    1.7249764   -1.8193403 
C     4.2618697    2.8195929   -2.1131673 
O     5.1814444    3.6860642   -1.5375781 
O     3.7177813    3.1590826   -3.3525209 
H     3.0295345    2.4890895   -3.6581616 
C     4.2162789    0.2651340   -2.1193195 
H     4.4382484    1.5803745   -0.4059699 
C     5.7124596    0.0415472   -2.1644031 
H     3.7896738    0.2721080   -3.1448212 
H     3.7420783   -0.5991908   -1.5987667 
C     6.5664218    0.4361723   -3.1234549 
C     6.3296640    1.0909284   -4.2893453 
C     7.3897971    1.3844422   -5.0955012 
C     8.6567865    1.0225496   -4.7302255 
C     8.8713777    0.3657063   -3.5551922 
C     7.8062740    0.0867785   -2.7745842 
H     5.3274508    1.3859121   -4.5818045 
H     7.2257250    1.9146590   -6.0305128 
H     9.4966083    1.2640045   -5.3767364 
H     9.8703654    0.0758287   -3.2480784 
N     7.8142041   -0.5755420   -1.5178187 
C     6.4193682   -0.5570220   -1.1892769 
H     8.6204021   -0.9713851   -0.9823323 
H     5.9991453   -0.9584460   -0.2694811 
