48
Energy =
C     1.4911613   -4.8340018    1.9179706 
C     1.2664229   -3.5373952    1.5858172 
C     1.4679399   -5.7991608    0.9601725 
C     1.2187509   -5.4593197   -0.3249139 
C     0.9933166   -4.1646429   -0.6628047 
C     1.0134201   -3.1951170    0.2923176 
H     1.2930308   -2.7772275    2.3623374 
H     1.2025212   -6.2376662   -1.0798784 
H     0.7965168   -3.9115596   -1.7013457 
H     1.6909338   -5.0969724    2.9511060 
C     0.7821957   -1.7493231   -0.0881057 
C     2.0288131   -1.1043852   -0.7437837 
H     0.4690158   -1.1490751    0.7957336 
H    -0.0769907   -1.7010038   -0.7953627 
C     1.7212988    0.2773681   -1.3095300 
O     1.6987532   -7.1438411    1.2684297 
H     1.8656515   -7.3184608    2.2533381 
O     0.5164405    0.9040429   -1.0140140 
N     3.1417683   -1.0356779    0.2186472 
H     2.3347661   -1.7253590   -1.6173017 
H     2.8268627   -0.5487164    1.0924763 
H     3.4347667   -2.0039814    0.4889009 
N     2.5171867    0.8142731   -2.3717323 
C     3.8882033    1.2525320   -2.0487133 
H     2.1126692    0.8281238   -3.3342269 
C     4.0796075    2.7380068   -2.3377767 
O     4.4962434    3.5791050   -1.3136732 
O     3.9252076    3.2700526   -3.6200257 
H     3.5502733    2.5913428   -4.2637429 
C     4.8799012    0.3684689   -2.8329671 
H     4.0954862    1.1426571   -0.9561937 
C     6.3161834    0.6886112   -2.4786049 
H     4.7298639    0.4983964   -3.9273453 
H     4.6695309   -0.7016826   -2.6176737 
C     7.0445515    0.1461061   -1.4898170 
C     6.7174426   -0.8234165   -0.5974495 
C     7.6481176   -1.1934433    0.3283844 
C     8.8769099   -0.5934875    0.3505029 
C     9.1818484    0.3809709   -0.5530411 
C     8.2451988    0.7270760   -1.4609279 
H     5.7416263   -1.2968817   -0.6092415 
H     7.4100895   -1.9669804    1.0544393 
H     9.6123057   -0.8912595    1.0938014 
H    10.1489085    0.8722385   -0.5454483 
N     8.3531709    1.7218660   -2.4690867 
C     7.0564315    1.6389973   -3.0771290 
H     9.1626277    2.3399005   -2.7076199 
H     6.7035609    2.2921717   -3.8757529 
