48
Energy =
C     2.7282864    1.0888874    2.8594604 
C     1.5426551    1.3124136    2.2391498 
C     3.2369986   -0.1695162    2.9273533 
C     2.5545560   -1.1955770    2.3709214 
C     1.3743022   -0.9770813    1.7400494 
C     0.8578096    0.2808238    1.6690687 
H     1.1460751    2.3241205    2.2038092 
H     2.9637268   -2.1961706    2.4360599 
H     0.8461121   -1.8198381    1.3055749 
H     3.2656925    1.9191522    3.3051071 
C    -0.4710380    0.5366266    0.9811731 
C    -0.3416277    0.8861638   -0.5258276 
H    -0.9902012    1.3739512    1.5007507 
H    -1.1399315   -0.3430659    1.1056174 
C     0.6369430    2.0254119   -0.7669220 
O     4.4551448   -0.4337131    3.5637670 
H     4.8916827    0.3868600    3.9696639 
O     0.4000483    3.2590223   -0.1710249 
N    -0.0099420   -0.3055745   -1.3367135 
H    -1.3273186    1.2944268   -0.8539422 
H    -0.0137692   -1.1909822   -0.7801557 
H    -0.7171897   -0.4307954   -2.0985208 
N     1.6960398    1.9103348   -1.7247347 
C     3.0760605    1.9736146   -1.2132647 
H     1.4511444    1.7748334   -2.7296709 
C     3.5854797    3.4150681   -1.1962956 
O     4.1530274    3.9617493   -2.3436566 
O     3.5044553    4.2058519   -0.0488526 
H     2.9172233    3.7806308    0.6540344 
C     3.9811201    1.0674696   -2.0767125 
H     3.1213494    1.5961779   -0.1660999 
C     3.6862860   -0.4005501   -1.8586347 
H     5.0519027    1.2615019   -1.8453536 
H     3.8533146    1.3195817   -3.1535198 
C     4.2320177   -1.2019031   -0.9303222 
C     5.1524414   -0.9239097    0.0281265 
C     5.5605605   -1.9354259    0.8470683 
C     5.0496650   -3.1950656    0.6974917 
C     4.1206007   -3.4489933   -0.2673103 
C     3.7307723   -2.4311092   -1.0630997 
H     5.5525149    0.0768514    0.1572477 
H     6.2833698   -1.7336486    1.6350460 
H     5.3785804   -3.9935218    1.3579018 
H     3.7019234   -4.4408675   -0.3972724 
N     2.7864639   -2.4835523   -2.1225590 
C     2.8142379   -1.1249433   -2.5808364 
H     2.2260995   -3.2925880   -2.4744423 
H     2.2010297   -0.7372294   -3.3899843 
