48
Energy =
C     3.0447100   -5.9310562   -5.2193968 
C     3.3116165   -4.6016626   -5.3167836 
C     2.2029422   -6.3928607   -4.2529900 
C     1.6358601   -5.5210446   -3.3879454 
C     1.9054872   -4.1977209   -3.4901590 
C     2.7298421   -3.7223716   -4.4556699 
H     3.9946663   -4.2506534   -6.0856896 
H     0.9708161   -5.8925938   -2.6166299 
H     1.4657113   -3.3607388   -2.7874819 
H     3.5098751   -6.6231633   -5.9131711 
C     3.0445414   -2.2296631   -4.5186833 
C     1.8372005   -1.3093590   -4.1373147 
H     3.3800145   -1.9903754   -5.5513357 
H     3.9069358   -2.0239670   -3.8541279 
C     1.5005899   -1.3649678   -2.6151416 
O     1.9079758   -7.7538134   -4.1274672 
H     2.3757617   -8.3391937   -4.8108643 
O     1.0449271   -2.5883552   -2.1213246 
N     2.0279715    0.0432798   -4.6823665 
H     0.9347374   -1.7472928   -4.6299201 
H     2.4188862    0.0092200   -5.6527638 
H     1.0872591    0.4903078   -4.8072774 
N     1.7128041   -0.3609786   -1.5921409 
C     2.3732227    0.9492244   -1.8084846 
H     0.8536865   -0.2984512   -1.0017041 
C     1.6138225    1.9435042   -2.6925173 
O     2.3145053    2.9698753   -3.3153954 
O     0.2221034    1.9397018   -2.8139213 
H    -0.2126784    1.2049018   -2.2829898 
C     3.8633941    0.7606138   -2.1781993 
H     2.3734218    1.4716019   -0.8252514 
C     4.6277126    0.1049442   -1.0481212 
H     4.3291146    1.7411051   -2.4184259 
H     3.9721273    0.1579431   -3.0978409 
C     5.2027587    0.7117067   -0.0130652 
C     5.2938318    2.0343393    0.2815395 
C     5.9417289    2.3994654    1.4237202 
C     6.4801384    1.4488321    2.2445915 
C     6.3693657    0.1273408    1.9284946 
C     5.7208660   -0.2150073    0.7932473 
H     4.8638131    2.7919822   -0.3674621 
H     6.0306997    3.4523822    1.6819209 
H     6.9980186    1.7470729    3.1533164 
H     6.7910577   -0.6407232    2.5689345 
N     5.5046152   -1.5479837    0.3223678 
C     4.7683956   -1.2172973   -0.8737845 
H     4.8321067   -2.0132129    0.9777263 
H     4.3505614   -1.9668489   -1.5420366 
