48
Energy =
C     0.6918044   -2.0187695    2.4626169 
C     0.4473012   -1.8327590    1.1409921 
C     1.8683457   -2.5659323    2.8695780 
C     2.7936920   -2.9202583    1.9489445 
C     2.5544706   -2.7360873    0.6255757 
C     1.3752155   -2.1964261    0.2137491 
H    -0.4937233   -1.3871143    0.8306020 
H     3.7299563   -3.3500342    2.2864394 
H     3.3153159   -3.0193135   -0.0957867 
H    -0.0545972   -1.7260651    3.1925126 
C     1.1128190   -1.9656012   -1.2577637 
C     1.3715581   -0.4964221   -1.6618391 
H     0.0558462   -2.2297980   -1.4806312 
H     1.7357645   -2.6487808   -1.8746408 
C     2.8012771   -0.0636552   -1.3824170 
O     2.1510963   -2.7739418    4.2245429 
H     1.4132986   -2.4668810    4.8483061 
O     3.0295734    0.8579678   -0.5858721 
N     1.0312269   -0.3021652   -3.0796218 
H     0.7220344    0.1695915   -1.0444644 
H     1.5802918   -0.9692116   -3.6702262 
H     0.0162614   -0.5113272   -3.2249967 
N     3.9040722   -0.6064346   -2.1272833 
C     4.8716190    0.4177717   -2.5501465 
H     3.9662800   -1.6226233   -2.3539832 
C     4.7941970    1.6201149   -1.5971475 
O     5.6454859    2.7078146   -1.7592796 
O     3.9763085    1.6178788   -0.6626566 
H     3.8953228    0.8106966   -0.0792213 
C     4.5445650    0.7851647   -4.0117175 
H     5.9027635    0.0097042   -2.4731799 
C     5.5755847    1.7042255   -4.6303001 
H     3.5276948    1.2342012   -4.0621284 
H     4.4960257   -0.1464113   -4.6165287 
C     5.4843299    3.0344802   -4.7976471 
C     4.4841088    3.8914820   -4.4644477 
C     4.6449498    5.2163214   -4.7453315 
C     5.7887539    5.6611608   -5.3481957 
C     6.7808562    4.7838068   -5.6709948 
C     6.5990915    3.4779291   -5.3823412 
H     3.5818386    3.5469872   -3.9681270 
H     3.8627313    5.9229074   -4.4784643 
H     5.9108009    6.7197164   -5.5632608 
H     7.6970371    5.1214203   -6.1431916 
N     7.5049650    2.4111649   -5.6290412 
C     6.7660885    1.2992590   -5.1071859 
H     8.4491929    2.4349257   -6.0778393 
H     7.1243707    0.2728473   -5.0999843 
