48
Energy =
C     0.7849431   -2.6545708    1.5902969 
C     0.8172915   -1.3042428    1.4573057 
C     0.4976039   -3.4409900    0.5181727 
C     0.2418478   -2.8688297   -0.6804863 
C     0.2726708   -1.5200680   -0.8185400 
C     0.5562614   -0.7281766    0.2520731 
H     1.0588937   -0.6883840    2.3198857 
H     0.0158622   -3.5031977   -1.5297149 
H     0.0824405   -1.0783990   -1.7936693 
H     0.9941138   -3.1037206    2.5552310 
C     0.6459057    0.7738106    0.0878043 
C     2.1031436    1.2411395   -0.1301528 
H     0.2248759    1.2693012    0.9897800 
H     0.0223557    1.1062906   -0.7732396 
C     2.7319469    0.5760476   -1.3485936 
O     0.4636680   -4.8356850    0.6206551 
H     0.6534667   -5.1845158    1.5538131 
O     2.1537969    0.7599985   -2.6026697 
N     2.1454789    2.7062479   -0.2480398 
H     2.7151548    0.9492805    0.7529254 
H     1.6223545    3.0045176   -1.1072034 
H     1.6852590    3.1509627    0.5797355 
N     3.6086061   -0.5454166   -1.1676671 
C     4.8975786   -0.5483306   -1.8828056 
H     3.3630262   -1.2830324   -0.4703983 
C     5.6454199    0.7811076   -1.7612627 
O     6.0759402    1.4495065   -2.9025693 
O     5.9725327    1.3118802   -0.5130473 
H     5.5863414    0.7632440    0.2407808 
C     4.6812687   -0.9864016   -3.3485144 
H     5.5628430   -1.2958645   -1.3975994 
C     4.0258126   -2.3512161   -3.4274202 
H     5.6642937   -1.0380518   -3.8671826 
H     4.0893395   -0.2089946   -3.8791294 
C     2.7669623   -2.6443373   -3.8056117 
C     1.7715294   -1.8372456   -4.2568861 
C     0.5705480   -2.4009576   -4.5770835 
C     0.3836452   -3.7475546   -4.4470568 
C     1.3955365   -4.5405784   -3.9963479 
C     2.5737094   -3.9607326   -3.6857883 
H     1.9107419   -0.7673070   -4.3676726 
H    -0.2434506   -1.7754543   -4.9379987 
H    -0.5767318   -4.1894798   -4.7036145 
H     1.2624497   -5.6120159   -3.8853719 
N     3.7434354   -4.6079722   -3.2073405 
C     4.6351935   -3.4959346   -3.0684210 
H     3.9061758   -5.6244760   -3.0173804 
H     5.6575920   -3.5725117   -2.7035701 
