48
Energy =
C     1.1739391   -1.3668395    2.1751437 
C     0.3915263   -0.7169884    1.2780716 
C     1.8961496   -2.4548089    1.7922058 
C     1.8302941   -2.8830348    0.5101150 
C     1.0491219   -2.2377125   -0.3898764 
C     0.3179924   -1.1521034   -0.0103279 
H    -0.1717472    0.1558896    1.5979555 
H     2.4122549   -3.7466185    0.2072471 
H     1.0203965   -2.5927514   -1.4168549 
H     1.2219777   -1.0105057    3.1989519 
C    -0.5238881   -0.4019214   -1.0237641 
C     0.2217648    0.8294807   -1.5850882 
H    -1.4692997   -0.0693899   -0.5406393 
H    -0.8182987   -1.0778880   -1.8577825 
C     1.5252312    0.4155727   -2.2532665 
O     2.7120286   -3.1472159    2.6945834 
H     2.7139668   -2.7532887    3.6292009 
O     1.4552714   -0.3952099   -3.3787447 
N    -0.6256449    1.5717175   -2.5301697 
H     0.4501045    1.5130696   -0.7367846 
H    -0.9651518    0.9224591   -3.2780704 
H    -1.4677612    1.9253328   -2.0193443 
N     2.7818660    0.6766549   -1.5885006 
C     4.1403705    0.2530780   -2.0180089 
H     2.7338912    1.2070558   -0.6878797 
C     5.0224180    1.4510659   -2.2927874 
O     5.7281445    2.0467831   -1.2549440 
O     5.1135883    2.0221042   -3.5627669 
H     4.5421204    1.4609935   -4.3633776 
C     4.2751384   -0.8448854   -3.1040147 
H     4.5887125   -0.2237284   -1.1173689 
C     3.8449320   -0.5084295   -4.5311663 
H     3.7208241   -1.7290059   -2.7254323 
H     5.3427802   -1.1522295   -3.1570930 
C     3.1968091   -1.3732713   -5.3316465 
C     2.9908369   -2.7092318   -5.1616130 
C     2.2718813   -3.3869269   -6.0982184 
C     1.7607291   -2.7322728   -7.1788524 
C     1.9663018   -1.3971760   -7.3270463 
C     2.6895499   -0.7415205   -6.3889726 
H     3.3977341   -3.2511384   -4.3146799 
H     2.1044965   -4.4535853   -5.9838503 
H     1.1863728   -3.2772890   -7.9212746 
H     1.5591575   -0.8600307   -8.1796910 
N     2.9624535    0.6567600   -6.3843876 
C     3.9025920    0.8433088   -5.2476964 
H     2.5544252    1.2848234   -7.1328927 
H     4.1138158    1.9465859   -5.3226282 
