48
 energy: -9.292212004007 gnorm: 0.000986948979 xtb: 6.6.0 (2ccbbd7)
C            2.05097187269138       -2.31436031450784        1.19329221631792
C            1.69541548574269       -1.20103189674451        0.47087404896974
C            1.24268867463230       -3.44999199058443        1.18859225394119
C            0.06614737789870       -3.41544582781713        0.44271932468087
C           -0.28130658641261       -2.29453037171291       -0.27320455519437
C            0.52331872883857       -1.16345041081805       -0.27256731690767
H            2.34552611313696       -0.34583354575277        0.47486218177779
H           -0.55954212641696       -4.28977137657497        0.43835419654724
H           -1.18666149753106       -2.29080482866021       -0.85564558915526
H            2.96544844390203       -2.32357723203107        1.75872270766997
C            0.13248937181633        0.00819852914113       -1.13335578777517
C            0.75132590404582        1.36898049945698       -0.77998195387792
H           -0.95748308572474        0.10747564894419       -1.11526888810291
H            0.38665574553518       -0.22716779418665       -2.17081288917590
C            2.24307218289189        1.38601413272842       -0.97178182356895
O            1.58017593057608       -4.59358613622861        1.88654527815206
H            2.41382814494883       -4.44983971066253        2.38445881473877
O            2.98306746304467        1.45810098158340       -0.01016984591212
N            0.18529447047793        2.46323565011900       -1.57646014149409
H            0.56845284256446        1.58600856630249        0.28446688161039
H            0.05670000345240        2.15781555764727       -2.53538684514701
H           -0.73675831422813        2.70874118064064       -1.23840684060617
N            2.70661197275285        1.35030565365601       -2.26211126107777
C            4.03258635202847        1.85345461859235       -2.54367284898967
H            2.06605953132836        1.37729234191650       -3.05629934237027
C            3.93167794313680        3.20723747213187       -3.21565036837146
O            4.88454436002301        3.58368982476947       -3.86310397216341
O            2.78763315676538        3.91771523406432       -3.03204583337765
H            2.09295887235215        3.43411010312783       -2.50669557817816
C            4.83753560941730        0.84058647300661       -3.35192122360073
H            4.51924421977723        1.99833995733819       -1.56681632626054
C            4.89956699238817       -0.48017868484911       -2.66202029640354
H            5.84594251625812        1.22641521930358       -3.53299949471727
H            4.37640988760293        0.72195337806692       -4.33631184720473
C            3.90613107966986       -1.50326962351880       -2.71555885214839
C            2.71230125241912       -1.63925408679341       -3.44467623168510
C            1.94115405375664       -2.74959497255326       -3.24041235057310
C            2.32396081440234       -3.74124970408041       -2.32322399551954
C            3.48107475084438       -3.63067914617687       -1.60261197115996
C            4.28474939573900       -2.49985814589271       -1.79571574513213
H            2.42199909952019       -0.87572549155178       -4.14393964247966
H            1.02213176774987       -2.86684961019470       -3.79000810898731
H            1.69007041989119       -4.60061925043740       -2.18068304261069
H            3.77427047284202       -4.37966706898699       -0.88915253253525
N            5.46600271978181       -2.08997415954916       -1.20381568867704
C            5.82005657078884       -0.86759251822385       -1.71945012006711
H            5.95384496477763       -2.59892966496243       -0.46439158339070
H            6.67236948340054       -0.28820456797081       -1.40268680426425
