48
Energy =
C     3.3966391    2.4511315    4.4492257 
C     3.2625759    1.2443786    3.8433024 
C     4.2118744    3.3984265    3.9132660 
C     4.8856154    3.1314322    2.7712495 
C     4.7581677    1.9249908    2.1639536 
C     3.9453699    0.9717178    2.6968600 
H     2.6010659    0.5002696    4.2782813 
H     5.5250200    3.8976599    2.3450318 
H     5.3091178    1.7354702    1.2480303 
H     2.8479439    2.6579940    5.3615018 
C     3.7734729   -0.3651062    2.0049916 
C     2.4117186   -0.4747348    1.2790728 
H     3.8446533   -1.1726638    2.7665367 
H     4.6071799   -0.5500759    1.2946739 
C     2.1600308    0.6703672    0.3026731 
O     4.3776241    4.6489635    4.5178105 
H     3.8112564    4.7863150    5.3475061 
O     1.3073260    1.6958616    0.6900172 
N     2.2981542   -1.7897355    0.6249999 
H     1.5995039   -0.3883181    2.0389642 
H     3.1100891   -1.9428816   -0.0183204 
H     2.3279548   -2.5450141    1.3501947 
N     2.4371211    0.5238757   -1.0947807 
C     3.8117650    0.7875382   -1.5512171 
H     1.6606279    0.1937255   -1.7098521 
C     4.0836159    2.2817914   -1.6979792 
O     5.2361846    2.8170765   -1.1354283 
O     3.2653244    3.1106105   -2.4650914 
H     2.4007283    2.6506599   -2.7098094 
C     4.0517818    0.0331817   -2.8742477 
H     4.5377110    0.4083474   -0.8004204 
C     5.5101694    0.0716715   -3.2724215 
H     3.4284948    0.4754113   -3.6841278 
H     3.7245895   -1.0246211   -2.7692845 
C     6.4795830   -0.7547075   -2.8498102 
C     6.4090781   -1.8257397   -2.0176356 
C     7.5600837   -2.4982527   -1.7292259 
C     8.7506294   -2.0921245   -2.2662107 
C     8.7974905   -1.0098685   -3.0943297 
C     7.6447394   -0.3637882   -3.3680223 
H     5.4665558   -2.1459016   -1.5846619 
H     7.5316437   -3.3600800   -1.0669191 
H     9.6643918   -2.6312577   -2.0288866 
H     9.7343224   -0.6692222   -3.5220654 
N     7.4780545    0.7901919   -4.1796208 
C     6.0663856    1.0139188   -4.0540634 
H     8.1914940    1.3256188   -4.7258589 
H     5.5321710    1.8617798   -4.4837930 
