48
Energy =
C    -3.2126091    2.1340059    1.9331692 
C    -1.9406102    1.9337822    1.5042348 
C    -4.2475422    2.0807727    1.0524339 
C    -4.0016562    1.8260452   -0.2527852 
C    -2.7318927    1.6249909   -0.6871068 
C    -1.6919875    1.6819391    0.1893181 
H    -1.1248987    1.9741950    2.2210576 
H    -4.8351803    1.7837627   -0.9451304 
H    -2.5541453    1.4179772   -1.7393590 
H    -3.4000063    2.3351954    2.9823598 
C    -0.2788532    1.4394916   -0.2929450 
C     0.0208804   -0.0691082   -0.4692895 
H     0.4524162    1.9022213    0.4047724 
H    -0.1435928    1.9600661   -1.2683284 
C     1.3096248   -0.2941927   -1.2483251 
O    -5.5698630    2.2819741    1.4617532 
H    -5.6697205    2.4681961    2.4535243 
O     1.1950367   -0.8038752   -2.5362617 
N     0.0544771   -0.7561553    0.8334369 
H    -0.7812245   -0.5253924   -1.0972007 
H     0.6925314   -0.2549772    1.4943390 
H    -0.9037171   -0.7527860    1.2552145 
N     2.5933972    0.0047208   -0.6364150 
C     3.9342147   -0.1845851   -1.2789428 
H     2.5121464    0.7537836    0.0768595 
C     4.8960415    1.0152840   -1.1864895 
O     6.1711498    0.8715214   -1.7177995 
O     4.5549651    2.2671215   -0.6722189 
H     3.9863104    2.2082889    0.1522798 
C     3.9221707   -0.7428675   -2.7272838 
H     4.4463357   -0.9638582   -0.6728554 
C     3.4559083    0.2219292   -3.8128415 
H     3.3420254   -1.6886953   -2.7656386 
H     4.9629112   -1.0441983   -2.9828469 
C     3.4579529   -0.0427753   -5.1289833 
C     3.8598493   -1.1612325   -5.7866916 
C     3.7588989   -1.1856782   -7.1467941 
C     3.2622974   -0.1050874   -7.8217757 
C     2.8626725    1.0061472   -7.1407035 
C     2.9728776    1.0061302   -5.7957031 
H     4.2511501   -2.0218533   -5.2517373 
H     4.0734567   -2.0695351   -7.6970913 
H     3.1840197   -0.1322073   -8.9061468 
H     2.4645500    1.8712426   -7.6608790 
N     2.6124573    2.0521761   -4.9070773 
C     2.9492319    1.4623625   -3.6423362 
H     2.2081053    2.9943652   -5.1162762 
H     2.7889326    1.9517913   -2.6849229 
