48
 energy: -9.178660973491 gnorm: 0.000973018123 xtb: 6.6.0 (2ccbbd7)
C            1.47025091664594        3.09583294480258       -4.87752641096513
C            1.08780012439710        3.20869892144282       -3.56354227260761
C            0.58442892430927        2.59174197176024       -5.82941664885733
C           -0.68716123401975        2.20367163160715       -5.40563847006522
C           -1.05364397301362        2.30413016512895       -4.08346297745966
C           -0.17034762645318        2.80940028748598       -3.14045093747299
H            1.79411506542471        3.55886127750113       -2.82974524991594
H           -1.36955090266786        1.81240861506298       -6.13876438481973
H           -2.03132821797375        1.98225872307617       -3.76873551532398
H            2.47212850714361        3.35955956296120       -5.16795131680157
C           -0.52470100776372        2.86718821053435       -1.68384803117169
C            0.20019281979793        1.80529356469271       -0.84368926634599
H           -1.60736285391344        2.76899299055269       -1.55824779072617
H           -0.26539953889222        3.85613794578446       -1.29373411527270
C            1.67989462091278        1.97262735667237       -0.96454938690463
O            0.93714166887386        2.46098105556176       -7.15906622203377
H            1.86041018574171        2.76621330922686       -7.29136761737708
O            2.22361837860901        3.21419673762465       -0.60671318089463
N           -0.19376971053220        1.85224896714251        0.56010607122753
H           -0.06027012130323        0.80814154097493       -1.23047988383444
H            0.16011257289199        2.70778670387151        0.96709418612440
H           -1.20216464441599        1.86534455604850        0.64952900608253
N            2.47485125199156        0.96158872430423       -1.48000695621741
C            3.84774368085890        1.23331301997763       -1.90652708222694
H            2.03044335380394        0.26538373967810       -2.07438773842074
C            3.92020723696766        2.64410233410269       -2.44278857543876
O            4.30631990836022        2.85713013252890       -3.58955931724604
O            3.48967310775870        3.64321443944753       -1.54837259788372
H            3.37299806471278        3.21159641298993       -0.48510841667950
C            4.34994855594694        0.21666973253989       -2.93825890553274
H            4.48782692955445        1.18428908054159       -1.01449665938329
C            4.64907926707495       -1.15863473231928       -2.42419516040483
H            5.25741981966636        0.62011276488415       -3.40122003771402
H            3.61981256258047        0.15194376191419       -3.75024221379405
C            4.27655355061084       -1.78897621244402       -1.19238556223455
C            3.52494110996710       -1.38464925270494       -0.07347808482215
C            3.37470128542268       -2.24285855409756        0.97904673858856
C            3.95162721496547       -3.52188005207205        0.95934706285399
C            4.67765475378023       -3.94945845570929       -0.11739320886492
C            4.84265879264591       -3.08042667708364       -1.20358194064141
H            3.05483304901742       -0.42129463600119       -0.06441132257913
H            2.79874927486380       -1.93721177370143        1.83673919525733
H            3.81577362240121       -4.17646726876851        1.80431386322601
H            5.12188302542685       -4.92817453571726       -0.14544496104897
N            5.51502643122030       -3.23449565270758       -2.40067684465229
C            5.39127274209812       -2.07739388393188       -3.12594606876172
H            6.02715725563638       -4.07371288898889       -2.67834785384298
H            5.82414949517309       -1.91470612501689       -4.09978429861676
