48
 energy: -9.287326778481 gnorm: 0.000497462915 xtb: 6.6.0 (2ccbbd7)
C            1.64560480010603        5.16656601971631       -0.53918306913915
C            1.23213779756928        4.02803930099914       -1.18643105258250
C            0.83681725477782        5.76400892818856        0.42767604256936
C           -0.39178955182193        5.17099540107341        0.71780519945648
C           -0.79259246138876        4.02569263354210        0.07161912020358
C            0.01098094994961        3.43740585466858       -0.89345635648656
H            1.87292346900544        3.57267449963533       -1.92180425799641
H           -1.01364211238011        5.62971425653704        1.46560123218239
H           -1.73876662177832        3.57373645011961        0.31443762538612
H            2.60434227779249        5.59738189296902       -0.76775055073404
C           -0.39738877276747        2.16045658346005       -1.56282966915406
C            0.14136123505529        0.90526078406531       -0.85775811467359
H           -0.04486313898794        2.17834104914922       -2.59927136194149
H           -1.48918577010777        2.11270929003565       -1.61970474353678
C            1.64532199379244        0.96450464867939       -0.76696646009826
O            1.21753305268185        6.91170277494469        1.09580895571785
H            2.11293727836525        7.18799390640146        0.80552724763349
O            2.15233514591361        1.42584002636673        0.23433344368415
N           -0.39387361509670        0.74772809388207        0.48543013743590
H           -0.13709036380283        0.00708139461789       -1.43126283523165
H            0.13162595957111        1.36450568506766        1.09906698597216
H           -1.37138975019777        1.01017952446307        0.52438509791055
N            2.39504424439016        0.53677160107175       -1.83987748358539
C            3.76034400031890        1.01785625972012       -2.00489136507841
H            1.94272896189342        0.18729841614134       -2.68546886194488
C            3.74375496640467        2.39191034049736       -2.64344771760801
O            4.51799789609782        3.22582201925483       -2.22607738731352
O            2.85344612915557        2.59422212202535       -3.64421204024792
H            2.35273558938175        1.76751962867259       -3.83623545093865
C            4.63953816621992        0.04940877833793       -2.78776026934508
H            4.17882261477318        1.15376281707789       -0.99757903234143
C            4.85258492570466       -1.29855105779878       -2.16946920662129
H            5.61659573970281        0.51651904641292       -2.95278498145459
H            4.20642130716136       -0.08405222727944       -3.78336776732457
C            4.49244777764519       -1.80123295461053       -0.87514688146295
C            3.77808216244725       -1.28085256047149        0.22066394416415
C            3.62589827594094       -2.04199857265478        1.34528232331178
C            4.16228264320872       -3.33521407674396        1.42571425667653
C            4.84924328485164       -3.87599432164716        0.37529840423071
C            5.01545336571757       -3.10828580694710       -0.78421696936509
H            3.31738031659314       -0.31342930996741        0.16325541809887
H            3.07388148389993       -1.64577070730055        2.18165420932266
H            4.02464973107235       -3.91001649797150        2.32656189001706
H            5.26214313145310       -4.86764504943222        0.42216391237587
N            5.65316795766015       -3.39116385543928       -1.97609770083019
C            5.55308620947577       -2.29914333076270       -2.79767042433787
H            6.13366677632178       -4.26773858134657       -2.18695395006436
H            5.97873448622779       -2.23499490998697       -3.78621323378862
