48
 energy: -9.290396238595 gnorm: 0.000277991243 xtb: 6.6.0 (2ccbbd7)
C            0.43820128660288        4.33671289128922       -4.09898313659362
C            0.55816040657611        3.55383501977786       -2.97524746597214
C           -0.56294266636248        4.08280526412035       -5.03738788599470
C           -1.43299490216166        3.01842204274774       -4.80395030177015
C           -1.30939199525028        2.24316882917230       -3.67624420673626
C           -0.32028862031687        2.50533375732749       -2.74008056607996
H            1.34176513734086        3.74712388104829       -2.26204902592490
H           -2.19944765155498        2.81835398090973       -5.53124333362170
H           -1.98270475475819        1.41957383387825       -3.51133875509975
H            1.11630885923503        5.15456315379565       -4.26651743400012
C           -0.16835405725832        1.63592176692005       -1.52953442301693
C            0.76451243177664        0.44714922197107       -1.77112467367854
H           -1.15121866110560        1.28190334636194       -1.20347719648005
H            0.22753373259194        2.22970168873446       -0.70033934756974
C            2.14761337383351        0.94206261936712       -2.10575454751495
O           -0.71166906150347        4.84653190118449       -6.17918142593387
H            0.00929236664324        5.50927727027647       -6.23769430905695
O            2.88571572740858        1.24568091721807       -1.19223511644069
N            0.86377808601865       -0.42957420726392       -0.61347733520559
H            0.38598891387871       -0.14586440387972       -2.61719506301065
H            1.50320813529288        0.00791180197911        0.04323800655349
H           -0.03490900320309       -0.54207312963794       -0.16031249101574
N            2.50486275848693        1.05790604038140       -3.42873844965854
C            3.87347912418016        1.39224823671153       -3.77510645649988
H            1.97384351174509        0.58825398905579       -4.16380562648289
C            3.94334028081047        1.85171009310441       -5.22104680338427
O            4.85924520588061        1.48146397477446       -5.92303650899041
O            2.94705083451980        2.67895342801313       -5.62129211951965
H            2.30028569809704        2.84048370326446       -4.89442588867761
C            4.79734136865020        0.21013015125459       -3.46159693105973
H            4.15837113652766        2.23561161179069       -3.12971611207039
C            6.23113992635176        0.58172402667407       -3.28245187510551
H            4.70516139657480       -0.53335390483899       -4.25900005280425
H            4.43874395080165       -0.27348572713756       -2.54732044596895
C            7.02202837546653        0.38944684272641       -2.11116582061929
C            6.73155235746524       -0.12681983739311       -0.83668799802460
C            7.73685620423749       -0.19125496393441        0.08782610484698
C            9.03507926924869        0.24931339256959       -0.21759977818205
C            9.33804660598437        0.76428580548863       -1.44839338340508
C            8.32308565323507        0.84004211143914       -2.41060464175182
H            5.73143977570333       -0.44466928496696       -0.60117789745895
H            7.53081171775362       -0.58391592796186        1.06972689424722
H            9.80431748974115        0.18186599519993        0.53380309759635
H           10.32858674791560        1.10617114228206       -1.68919627243965
N            8.31490952005113        1.30061855150769       -3.71627575846905
C            7.05111542420577        1.14265870759400       -4.22695805455056
H            9.12202320909785        1.69238822081098       -4.20489761654530
H            6.73165461301091        1.42465452282753       -5.21675744617578
