48
Energy =
C    -3.7469912    1.5597573    0.7346628 
C    -2.4941645    1.6397848    0.2196722 
C    -4.7505099    0.9997774    0.0076974 
C    -4.4921753    0.5218607   -1.2308074 
C    -3.2411117    0.5990637   -1.7510878 
C    -2.2344022    1.1639682   -1.0296730 
H    -1.7021344    2.0839633    0.8166717 
H    -5.3005312    0.0747176   -1.7989335 
H    -3.0520799    0.2041956   -2.7463534 
H    -3.9432654    1.9427464    1.7301899 
C    -0.8360731    1.2316940   -1.6023905 
C    -0.0896239   -0.1140461   -1.4593374 
H    -0.2547522    2.0479635   -1.1211182 
H    -0.9023255    1.5043478   -2.6807226 
C     1.1968418   -0.1098210   -2.2677719 
O    -6.0525909    0.9014585    0.5090898 
H    -6.1641948    1.2820366    1.4424536 
O     1.1597364   -0.7030986   -3.5200994 
N     0.1589738   -0.4353314   -0.0416906 
H    -0.7095459   -0.9241771   -1.9155804 
H     0.4811798    0.4068906    0.4885284 
H    -0.7363058   -0.7505125    0.4021053 
N     2.3410173    0.6452060   -1.8107679 
C     3.6455355    0.8257485   -2.5046961 
H     2.1557954    1.2542889   -0.9827294 
C     4.0718898    2.2896190   -2.4084090 
O     3.6431638    3.1988888   -3.3684439 
O     4.8383616    2.7594607   -1.3402286 
H     5.0385752    2.0399533   -0.6609403 
C     3.7292571    0.3391495   -3.9854228 
H     4.3963336    0.2578039   -1.9161260 
C     4.2125256   -1.0965040   -4.1118412 
H     4.4704911    0.9549203   -4.5427901 
H     2.7829786    0.5289237   -4.5320522 
C     5.4541817   -1.5382896   -3.8430203 
C     6.5441126   -0.8565096   -3.4013227 
C     7.7079392   -1.5429121   -3.2164259 
C     7.7684661   -2.8832637   -3.4794141 
C     6.6661396   -3.5445960   -3.9327353 
C     5.5255145   -2.8442915   -4.1042588 
H     6.5051178    0.2111042   -3.2038014 
H     8.5937012   -1.0203530   -2.8625598 
H     8.7006694   -3.4229696   -3.3322592 
H     6.6993824   -4.6058500   -4.1549637 
N     4.2847596   -3.3335661   -4.5878228 
C     3.4921316   -2.1373452   -4.5723911 
H     4.0222302   -4.3010512   -4.8858946 
H     2.4652776   -2.0863963   -4.9255319 
