48
Energy =
C    -3.3990073    2.2463064   -0.3772281 
C    -2.1576049    2.2623071    0.1715878 
C    -3.5603880    2.4672223   -1.7097963 
C    -2.4774299    2.7064561   -2.4834705 
C    -1.2349424    2.7240949   -1.9398850 
C    -1.0679450    2.5025389   -0.6074792 
H    -2.0413685    2.0759775    1.2361224 
H    -2.6185496    2.8825450   -3.5436085 
H    -0.3746458    2.9149272   -2.5763974 
H    -4.2611438    2.0525656    0.2516008 
C     0.3225314    2.4848461   -0.0147843 
C     1.0336398    1.1308484   -0.2615904 
H     0.3029694    2.7121489    1.0730011 
H     0.9153121    3.3075844   -0.4776393 
C     2.5430452    1.2173487   -0.1050819 
O    -4.8244294    2.4509500   -2.3088287 
H    -5.5839124    2.2770712   -1.6596027 
O     3.0957710    2.2878129    0.1924660 
N     0.4830825    0.0867695    0.6186479 
H     0.8787626    0.8354209   -1.3217543 
H     0.5646456    0.3930180    1.6171341 
H    -0.5339549   -0.0460793    0.4110474 
N     3.3616486    0.1038276   -0.4977579 
C     4.6230635    0.4762350   -1.1606050 
H     3.0333572   -0.8744527   -0.3355481 
C     4.8911281    1.9701119   -0.9825343 
O     5.8953865    2.5964269   -1.7161482 
O     4.1945767    2.6315305   -0.1990807 
H     3.9646135    2.2378309    0.6912374 
C     4.5765440    0.0525533   -2.6449001 
H     5.4645343   -0.0490372   -0.6601893 
C     3.4292603    0.6973935   -3.3993046 
H     4.5091266   -1.0534850   -2.7082896 
H     5.5363760    0.3300352   -3.1369337 
C     2.2223583    0.1627315   -3.6490750 
C     1.7214204   -1.0560919   -3.3179365 
C     0.4314087   -1.3411121   -3.6564445 
C    -0.3310047   -0.4164179   -4.3141882 
C     0.1923607    0.7990842   -4.6387642 
C     1.4709467    1.0580685   -4.2937202 
H     2.3160687   -1.7880660   -2.7812813 
H     0.0047481   -2.3066664   -3.3953028 
H    -1.3605733   -0.6495681   -4.5750710 
H    -0.4017112    1.5462469   -5.1538690 
N     2.1841398    2.2681491   -4.4995642 
C     3.4409594    1.9536929   -3.8821955 
H     1.8785685    3.1499741   -4.9720469 
H     4.2734312    2.6510580   -3.7824843 
