48
Energy =
C     4.0348836    6.0747803    3.1744446 
C     3.5561907    4.8832835    2.7356415 
C     5.1152035    6.6412702    2.5731027 
C     5.7087918    6.0108498    1.5340010 
C     5.2343523    4.8198099    1.0907515 
C     4.1560012    4.2459362    1.6923557 
H     2.6888482    4.4469080    3.2237806 
H     6.5685068    6.4718990    1.0598022 
H     5.7252934    4.3304138    0.2516380 
H     3.5506619    6.5740587    4.0065943 
C     3.6200242    2.9256070    1.1853985 
C     2.7815181    3.1035945   -0.1097545 
H     3.0112259    2.4191152    1.9663744 
H     4.4894632    2.2590233    0.9994436 
C     2.4791483    1.7869135   -0.8177755 
O     5.6327682    7.8678992    3.0020233 
H     5.1321939    8.2775760    3.7829318 
O     1.5580221    1.7760104   -1.8582383 
N     1.5340725    3.8288335    0.1972645 
H     3.3668366    3.6800794   -0.8683754 
H     1.0163015    3.3613270    0.9781506 
H     1.7504451    4.8104936    0.4906223 
N     3.2896093    0.6155953   -0.6074379 
C     4.4713531    0.3950747   -1.4682699 
H     3.0599494   -0.0176842    0.1897130 
C     5.2974542    1.6656051   -1.6796965 
O     4.9052385    2.5975517   -2.6316700 
O     6.3946477    1.9684104   -0.8724203 
H     6.6072213    1.2299002   -0.2181447 
C     4.0345710   -0.2431608   -2.8040779 
H     5.1449523   -0.3268004   -0.9554275 
C     3.6611552   -1.6999927   -2.6252744 
H     4.8683569   -0.1847981   -3.5393133 
H     3.1981401    0.3351031   -3.2534728 
C     2.4318121   -2.2193186   -2.4681713 
C     1.2179603   -1.6116461   -2.4695335 
C     0.1059630   -2.3790711   -2.2830548 
C     0.2211933   -3.7291658   -2.1009053 
C     1.4496547   -4.3197030   -2.1051500 
C     2.5344308   -3.5385994   -2.2918285 
H     1.1203333   -0.5432312   -2.6201298 
H    -0.8767610   -1.9130166   -2.2817975 
H    -0.6699076   -4.3342608   -1.9541485 
H     1.5594666   -5.3893640   -1.9633087 
N     3.8922386   -3.9532271   -2.3263074 
C     4.5552178   -2.7015306   -2.5420611 
H     4.2962858   -4.9115974   -2.2185050 
H     5.6339873   -2.5823788   -2.6137883 
