48
Energy =
C     4.4927180    4.4491254    3.8454074 
C     4.3903365    3.3551079    3.0497314 
C     3.8789461    4.4717750    5.0586662 
C     3.1664120    3.3970958    5.4671817 
C     3.0603608    2.2997623    4.6754911 
C     3.6750797    2.2719567    3.4614374 
H     4.8872023    3.3523014    2.0809035 
H     2.6818523    3.4282151    6.4366868 
H     2.4805898    1.4479269    5.0206229 
H     5.0666942    5.3049485    3.5071111 
C     3.5499955    1.0617605    2.5639286 
C     2.5135763    1.2804632    1.4360251 
H     3.2874927    0.1522727    3.1498091 
H     4.5513206    0.8501193    2.1227650 
C     2.6464079    0.2080818    0.3706681 
O     3.9622447    5.5843458    5.9028299 
H     4.5195705    6.3435864    5.5264081 
O     2.5168187   -1.1350086    0.7049196 
N     1.1456876    1.3036876    1.9793980 
H     2.7197468    2.2536554    0.9289122 
H     0.9541394    0.4117386    2.4965874 
H     1.0464361    2.0934696    2.6594797 
N     3.0484135    0.5533043   -0.9584591 
C     4.4987182    0.5980979   -1.2144746 
H     2.3085714    0.7433716   -1.6707543 
C     5.1155079    1.8915851   -0.6922953 
O     6.2168938    1.8323925    0.1503179 
O     4.6024200    3.1434716   -1.0333515 
H     3.7920850    3.0624123   -1.6291307 
C     4.7477566    0.4094348   -2.7232714 
H     4.9959616   -0.2409871   -0.6701505 
C     6.2219518    0.2564337   -3.0258644 
H     4.3336422    1.2703808   -3.2932170 
H     4.2028203   -0.4935976   -3.0774361 
C     6.9437864   -0.8729544   -2.9549928 
C     6.5571079   -2.1347524   -2.6349104 
C     7.5022477   -3.1181488   -2.6225921 
C     8.8048247   -2.8284103   -2.9225649 
C     9.1705860   -1.5525041   -3.2347519 
C     8.2167002   -0.5978417   -3.2434653 
H     5.5255637   -2.3652446   -2.3848838 
H     7.2190599   -4.1365443   -2.3670523 
H     9.5529761   -3.6169938   -2.9058019 
H    10.2006465   -1.3036496   -3.4660068 
N     8.3880004    0.7855795   -3.5178213 
C     7.0484255    1.2686936   -3.3431328 
H     9.2558509    1.3051036   -3.7838838 
H     6.7546916    2.3161120   -3.4067286 
