48
Energy =
C     2.8651535    1.4962248    5.3211025 
C     2.9519804    0.4540458    4.4519224 
C     2.8555303    2.7777646    4.8576964 
C     2.9359287    3.0078791    3.5268686 
C     3.0229027    1.9648515    2.6670746 
C     3.0178534    0.6863320    3.1127447 
H     2.9720507   -0.5618194    4.8373699 
H     2.9306144    4.0286382    3.1602623 
H     3.0812162    2.0502669    1.4942133 
H     2.8083439    1.3028742    6.3868819 
C     3.1715413   -0.4553712    2.1150653 
C     2.3743991   -0.2545063    0.7874701 
H     2.8363972   -1.4016409    2.5940651 
H     4.2530727   -0.5768811    1.8828101 
C     2.9455487    0.8627396   -0.1063569 
O     2.7645181    3.8702882    5.7257469 
H     2.7160952    3.6158824    6.7060939 
O     3.1371158    2.1471024    0.3996159 
N     2.3048793   -1.5343677    0.0627583 
H     1.3367908    0.0733714    1.0354794 
H     3.2756620   -1.9023502   -0.0930214 
H     1.7946715   -2.2454337    0.6375082 
N     3.0811702    0.6714704   -1.5149848 
C     4.4199423    0.9061165   -2.0872946 
H     2.2523516    0.3582110   -2.0641836 
C     4.5994819    2.3484584   -2.5458077 
O     5.8290663    2.9658348   -2.3493557 
O     3.6180539    3.0292600   -3.2691672 
H     2.7575888    2.5079589   -3.3098391 
C     4.6724375   -0.0737512   -3.2517940 
H     5.2045176    0.7389018   -1.3118453 
C     4.6257032   -1.5130902   -2.7888235 
H     5.6812152    0.1210538   -3.6839438 
H     3.9455266    0.1097397   -4.0709658 
C     3.6322962   -2.3996094   -2.9741507 
C     2.4458277   -2.2632106   -3.6207908 
C     1.5967736   -3.3306675   -3.6519075 
C     1.9412774   -4.5052745   -3.0425453 
C     3.1368986   -4.6196660   -2.3982269 
C     3.9601263   -3.5506623   -2.3831356 
H     2.1669904   -1.3335417   -4.1041923 
H     0.6412241   -3.2471006   -4.1640103 
H     1.2596211   -5.3518612   -3.0719286 
H     3.4257367   -5.5434997   -1.9083429 
N     5.2318380   -3.4577160   -1.7572175 
C     5.5924136   -2.1051444   -2.0661453 
H     5.7549748   -4.1767331   -1.2054928 
H     6.5201016   -1.6280570   -1.7544069 
