48
Energy =
C    -1.6203104    6.8667465   -1.4883194 
C    -1.7052242    5.6745895   -2.1303115 
C    -0.8551990    6.9880369   -0.3731183 
C    -0.1799544    5.9152635    0.0914697 
C    -0.2616096    4.7200119   -0.5446857 
C    -1.0189431    4.5873206   -1.6738569 
H    -2.3280707    5.5989500   -3.0183041 
H     0.4282536    6.0260743    0.9819674 
H     0.2959429    3.8928405   -0.1356129 
H    -2.1687472    7.7219023   -1.8687681 
C    -1.1862831    3.2673585   -2.4230687 
C    -0.1020024    2.1675071   -2.2329033 
H    -1.2188832    3.4970224   -3.5129455 
H    -2.1836269    2.8456700   -2.1720756 
C     1.3245173    2.6322871   -2.5397276 
O    -0.7506152    8.1996004    0.3174888 
H    -1.2649693    8.9621961   -0.1098991 
O     1.5329030    3.8950204   -3.0812772 
N    -0.2327698    1.4780520   -0.9285133 
H    -0.3069807    1.3996133   -3.0127441 
H     0.5750684    1.6784257   -0.2935461 
H    -1.1086269    1.7489924   -0.4219701 
N     2.4153106    1.7002204   -2.3702580 
C     3.8508992    2.0736672   -2.4784548 
H     2.1431976    0.6942077   -2.3210472 
C     4.1629213    3.4215317   -3.1503207 
O     4.3793969    3.4988311   -4.5207315 
O     4.3070748    4.5876771   -2.3946934 
H     3.9464237    4.4774348   -1.4594354 
C     4.6753428    0.8981300   -3.0839731 
H     4.2287158    2.1935972   -1.4400918 
C     4.0273117    0.2210163   -4.2831149 
H     4.8573840    0.1430410   -2.2903926 
H     5.6882664    1.2561821   -3.3773826 
C     3.3152460   -0.9222758   -4.2797935 
C     2.9894678   -1.7486890   -3.2498524 
C     2.2494981   -2.8621775   -3.5185548 
C     1.8536704   -3.1363027   -4.7976637 
C     2.1965173   -2.2990034   -5.8165251 
C     2.9269014   -1.2023120   -5.5255997 
H     3.3000661   -1.5396602   -2.2315049 
H     1.9737975   -3.5362028   -2.7112048 
H     1.2652553   -4.0266494   -5.0040413 
H     1.8942852   -2.5039810   -6.8378741 
N     3.3918747   -0.2195099   -6.4368984 
C     4.0989502    0.6621387   -5.5530696 
H     3.2608065   -0.1608122   -7.4729594 
H     4.6414755    1.5462316   -5.8798202 
