48
Energy =
C     3.3950204    1.1452774    6.3886887 
C     3.2526112    0.4651709    5.2228218 
C     4.3977289    2.0523246    6.5331633 
C     5.2527987    2.2716136    5.5089438 
C     5.1154383    1.5945395    4.3409190 
C     4.1115489    0.6874869    4.1894416 
H     2.4469870   -0.2580957    5.1259872 
H     6.0493148    2.9961658    5.6378519 
H     5.8153544    1.7825626    3.5309188 
H     2.7055777    0.9611399    7.2055306 
C     3.9565192   -0.0623995    2.8832627 
C     3.4177889    0.8405373    1.7439690 
H     3.2893874   -0.9466836    2.9979918 
H     4.9513259   -0.4736287    2.5971790 
C     3.4985824    0.1541944    0.3912641 
O     4.5718843    2.7704522    7.7207831 
H     3.8929202    2.5477229    8.4404060 
O     3.9770826   -1.1481013    0.2686360 
N     2.0263308    1.2646127    2.0045892 
H     4.0822530    1.7328262    1.6538765 
H     1.6788019    0.9573673    2.9421635 
H     1.9753185    2.3110497    2.0025861 
N     3.2206390    0.9022206   -0.7952131 
C     4.3515518    1.1946149   -1.6906776 
H     2.2428889    1.2290119   -0.9714120 
C     4.3406588    2.6604897   -2.1153975 
O     3.1365044    3.2691221   -2.4519609 
O     5.5189602    3.3974876   -2.2409214 
H     6.3401412    2.8362528   -2.0693660 
C     4.2576408    0.2489674   -2.9008771 
H     5.3136517    1.0047223   -1.1596978 
C     5.4945328    0.3193178   -3.7683345 
H     3.3438993    0.4720401   -3.4943320 
H     4.1386277   -0.7949613   -2.5298895 
C     5.7011449    1.1222610   -4.8250420 
C     4.8791092    2.0370253   -5.4011908 
C     5.3425652    2.7401880   -6.4739370 
C     6.6056225    2.5215606   -6.9503334 
C     7.4143111    1.5997557   -6.3546245 
C     6.9330998    0.9167606   -5.2946686 
H     3.8795412    2.2235933   -5.0191968 
H     4.7056727    3.4842510   -6.9467050 
H     6.9684601    3.0898078   -7.8031839 
H     8.4209526    1.4187640   -6.7156953 
N     7.6126172   -0.0672300   -4.5274661 
C     6.6122715   -0.3968829   -3.5558057 
H     8.5806583   -0.4463835   -4.6398166 
H     6.7493711   -1.1171541   -2.7521811 
