48
Energy =
C     1.3679747   -0.7804574    3.0289645 
C     1.2545099   -1.4751832    1.8686766 
C     1.0055688    0.5292157    3.0798647 
C     0.5304022    1.1347407    1.9680667 
C     0.4144678    0.4447254    0.8052256 
C     0.7785758   -0.8664507    0.7477883 
H     1.5496411   -2.5210768    1.8425930 
H     0.2452931    2.1799879    2.0218373 
H     0.0346837    0.9511565   -0.0798758 
H     1.7496196   -1.2751509    3.9155991 
C     0.6622612   -1.6350272   -0.5528063 
C     1.9155046   -1.5286572   -1.4540873 
H    -0.2214204   -1.2638290   -1.1198844 
H     0.4503715   -2.7060760   -0.3426145 
C     2.2641125   -0.0877248   -1.7980111 
O     1.1127208    1.2742920    4.2583681 
H     1.4728625    0.7480394    5.0467981 
O     1.4678876    0.6096954   -2.6980240 
N     3.0540644   -2.2670966   -0.8738172 
H     1.6624484   -1.9955576   -2.4351402 
H     3.3074336   -1.8608799    0.0585050 
H     2.7783624   -3.2644902   -0.7093751 
N     3.2969927    0.6158129   -1.0923608 
C     4.6224385    0.8205811   -1.7163464 
H     3.0822565    0.9719399   -0.1345689 
C     4.8354294    2.2829608   -2.0935476 
O     5.9246957    2.9644702   -1.5654933 
O     4.0081348    2.9460736   -2.9992929 
H     3.1975708    2.3904365   -3.2363613 
C     4.8732437   -0.1346056   -2.9137042 
H     5.3904699    0.6002555   -0.9398210 
C     6.3136811   -0.0820466   -3.3701001 
H     4.2038150    0.1292366   -3.7633969 
H     4.6177660   -1.1801527   -2.6259725 
C     7.3380392   -0.7985182   -2.8809259 
C     7.3517897   -1.7473296   -1.9090444 
C     8.5443413   -2.3252088   -1.5858682 
C     9.6916717   -1.9478750   -2.2276821 
C     9.6537150   -0.9890642   -3.1963852 
C     8.4616082   -0.4347735   -3.5009487 
H     6.4439359   -2.0445748   -1.3916432 
H     8.5834793   -3.0874479   -0.8112429 
H    10.6387953   -2.4106723   -1.9615518 
H    10.5552475   -0.6725931   -3.7099407 
N     8.2069635    0.5850078   -4.4567086 
C     6.7919380    0.7623797   -4.3010450 
H     8.8717425    1.0681853   -5.1038332 
H     6.1993080    1.5107876   -4.8284502 
