48
Energy =
C    -2.5657959    0.2057595   -4.2484275 
C    -1.8783800    0.5985344   -3.1426623 
C    -1.9308457    0.1000336   -5.4498006 
C    -0.6125688    0.3922714   -5.5369438 
C     0.0652569    0.7826654   -4.4307623 
C    -0.5493496    0.8769058   -3.2300412 
H    -2.4001543    0.6898253   -2.1938242 
H    -0.1103216    0.3119286   -6.4946158 
H     1.2123580    1.0369803   -4.3817410 
H    -3.6238910   -0.0197149   -4.1706854 
C     0.2458886    1.3669363   -2.0284361 
C     1.6769058    0.7531531   -1.9242673 
H    -0.3152431    1.1302211   -1.0979649 
H     0.3259370    2.4751615   -2.0860646 
C     2.6597641    1.2905148   -3.0041477 
O    -2.6073502   -0.3074686   -6.6036550 
H    -3.5941430   -0.4906739   -6.4593994 
O     2.2870179    1.2749205   -4.3521264 
N     2.1811248    0.9423091   -0.5524023 
H     1.5977120   -0.3415272   -2.1153278 
H     2.0554392    1.9414771   -0.2586057 
H     1.6229137    0.3545739    0.1118656 
N     3.9346230    1.8696935   -2.6699755 
C     5.1591159    1.2981857   -3.3021152 
H     4.0565518    1.8905705   -1.6347556 
C     5.8927875    2.3873801   -4.0683491 
O     7.2590575    2.5493253   -3.8696563 
O     5.2525359    3.1798821   -5.0205513 
H     4.2593623    2.9819334   -5.0498299 
C     4.9719156    0.0577850   -4.2275154 
H     5.8654716    1.0100266   -2.4939147 
C     4.4036015   -1.1640343   -3.5375945 
H     5.9619008   -0.2298337   -4.6473459 
H     4.3524239    0.3363989   -5.1095205 
C     4.9893536   -1.9095877   -2.5859926 
C     6.2160683   -1.7917860   -2.0137623 
C     6.5795106   -2.7018676   -1.0653596 
C     5.7273604   -3.7114378   -0.7137466 
C     4.5084721   -3.8214014   -1.3134496 
C     4.1688842   -2.9062156   -2.2449392 
H     6.9099035   -1.0103904   -2.3070116 
H     7.5561250   -2.6288566   -0.5921223 
H     6.0270427   -4.4354977    0.0398833 
H     3.8270522   -4.6253956   -1.0565461 
N     2.9714426   -2.8653914   -3.0077241 
C     3.2135605   -1.7176850   -3.8327026 
H     2.1401661   -3.4996301   -2.9694241 
H     2.5243147   -1.3399642   -4.5875237 
