48
Energy =
C     1.3087033   -2.1161095   -3.3137412 
C     0.3423312    0.9636680   -2.3967723 
C     1.0724973   -2.5440034   -4.5828529 
C     0.5370744   -1.6906804   -5.4858206 
C    -0.2974535    1.4349437   -4.6009582 
C    -0.1263710    1.8484311   -3.3095993 
H     0.4225447    1.2436913   -1.3519843 
H     0.4092605   -2.0276970   -6.5094597 
H    -0.6492358    2.1291502   -5.3598385 
H     1.7265146   -2.7939169   -2.5755433 
C    -0.2240120    3.3104999   -2.9226029 
C     1.1534125    4.0556172   -2.9465075 
H    -0.6691939    3.3963109   -1.9066310 
H    -0.9277661    3.8278534   -3.6100230 
C     2.1006970    3.7155482   -1.7918741 
O     1.3870671   -3.8427264   -4.9882533 
H     1.8258156   -4.4002937   -4.2646312 
O     2.3519004    4.6804641   -0.8230482 
N     1.8201889    3.9109525   -4.2492237 
H     0.9411260    5.1411525   -2.7962726 
H     2.1873313    2.9344904   -4.3537431 
H     1.1430943    4.0650938   -5.0301376 
N     2.5442085    2.3713717   -1.5354947 
C     3.9661949    2.0600386   -1.8253761 
H     2.3598718    2.2007109   -0.5196943 
C     4.7459560    3.1528755   -2.5812735 
O     4.9693463    3.0742746   -3.9443962 
O     5.2827510    4.2467032   -1.9038219 
H     4.8507418    4.3692020   -0.9989306 
C     4.0592997    0.6125206   -2.4216446 
H     4.5126357    2.0025726   -0.8562667 
C     3.2257993    0.3914250   -3.6751739 
H     3.7035773   -0.1060501   -1.6517343 
H     5.1202334    0.3527422   -2.6202060 
C     3.6229453    0.5523970   -4.9560880 
C     4.8625500    0.7633376   -5.4713087 
C     4.9990760    0.8760625   -6.8241534 
C     3.9078639    0.7669831   -7.6393016 
C     2.6753804    0.5400041   -7.1063006 
C     2.5690975    0.4269554   -5.7670062 
H     5.7328197    0.8510277   -4.8306628 
H     5.9802032    1.0599118   -7.2542425 
H     4.0229239    0.8626655   -8.7156419 
H     1.7971011    0.4497736   -7.7351808 
N     1.3790237    0.2036581   -5.0220597 
C     1.9215699    0.0239135   -3.7177448 
H    -0.1431979   -0.2016032   -5.0321206 
H     0.6634854   -0.6555908   -2.7580431 
