48
Energy =
C     3.6736000   -1.8719985    4.5747969 
C     3.6517410   -1.0331666    3.5079324 
C     3.8813342   -3.2036776    4.3931002 
C     4.0667231   -3.6868119    3.1437419 
C     4.0453676   -2.8530683    2.0736876 
C     3.8401552   -1.5190581    2.2503342 
H     3.4826552    0.0292357    3.6677404 
H     4.2323024   -4.7504020    3.0125088 
H     4.1950666   -3.2610275    1.0783624 
H     3.5234461   -1.4753595    5.5732045 
C     3.7944917   -0.5880643    1.0602186 
C     2.3487469   -0.1970299    0.6808840 
H     4.3021411   -1.0478229    0.1870827 
H     4.3778257    0.3308199    1.2998859 
C     2.3420520    0.8606919   -0.4049494 
O     3.9069232   -4.0959784    5.4695540 
H     3.7678005   -3.6562551    6.3729611 
O     2.1943380    2.1942857   -0.0511164 
N     1.5627976   -1.3799680    0.2859452 
H     1.8629275    0.2942323    1.5585653 
H     2.1300899   -1.9883610   -0.3484052 
H     1.3530366   -1.9522459    1.1377014 
N     2.5148033    0.5243057   -1.7877779 
C     3.7928161    0.9081794   -2.4219256 
H     1.7819172   -0.0548411   -2.2516549 
C     3.7236744    2.2627910   -3.1340003 
O     4.8572732    2.7119159   -3.8008135 
O     2.5779007    3.0563455   -3.1845595 
H     1.8869331    2.7688233   -2.5088442 
C     4.2252103   -0.1909012   -3.4208184 
H     4.5918008    1.0220078   -1.6526217 
C     4.5413754   -1.4979448   -2.7307534 
H     5.1425539    0.1388811   -3.9628964 
H     3.4473086   -0.3238383   -4.2023235 
C     3.7520549   -2.5802180   -2.6275703 
C     2.5050823   -2.8046500   -3.1168511 
C     1.9070357   -4.0005325   -2.8459018 
C     2.5576006   -4.9452897   -2.1015801 
C     3.8113067   -4.7010503   -1.6259569 
C     4.3814950   -3.5110914   -1.9076361 
H     1.9849596   -2.0597685   -3.7093973 
H     0.9083548   -4.2046092   -3.2258223 
H     2.0752902   -5.8974568   -1.8920456 
H     4.3439240   -5.4406064   -1.0370620 
N     5.6629835   -3.0573501   -1.4980541 
C     5.6880027   -1.7454282   -2.0744070 
H     6.3885761   -3.5407168   -0.9188932 
H     6.5175327   -1.0463016   -1.9781143 
