48
Energy =
C    -1.9649413    0.7779607    2.3418852 
C    -0.9617564    1.6496044    2.0678226 
C    -2.5855590    0.1112803    1.3322933 
C    -2.1960296    0.3209356    0.0543725 
C    -1.1936278    1.1917050   -0.2256173 
C    -0.5719508    1.8658868    0.7809578 
H    -0.4685573    2.1691322    2.8848752 
H    -2.6952806   -0.2209364   -0.7414766 
H    -0.8926271    1.3383978   -1.2590471 
H    -2.2668026    0.6128330    3.3704187 
C     0.5680397    2.8161519    0.4790303 
C     1.9450218    2.1756302    0.7701944 
H     0.4524132    3.7308498    1.1015975 
H     0.5184172    3.1640551   -0.5768165 
C     2.1801737    0.8831473   -0.0076181 
O    -3.6245149   -0.7919355    1.5796231 
H    -3.8474656   -0.9057275    2.5624047 
O     2.1528315   -0.3246798    0.6777853 
N     3.0170692    3.1605944    0.5419396 
H     1.9700932    1.8648303    1.8430925 
H     2.8363865    3.7137873   -0.3310948 
H     3.0183509    3.8562397    1.3256577 
N     2.3118506    0.8526821   -1.4393779 
C     3.6769456    1.2238293   -1.8914818 
H     1.5641588    1.4508833   -1.8560248 
C     3.6902607    2.5386686   -2.6700135 
O     2.7832793    2.7298460   -3.7050745 
O     4.6101256    3.5519844   -2.3959466 
H     5.2129727    3.3413353   -1.6139057 
C     4.2171750    0.0825185   -2.7765962 
H     4.3755965    1.3564664   -1.0296972 
C     4.5017431   -1.1618725   -1.9638204 
H     5.1550627    0.4018708   -3.2858259 
H     3.4865143   -0.1447435   -3.5848280 
C     3.6416762   -2.1489631   -1.6616349 
C     2.3401450   -2.3116982   -2.0131075 
C     1.6791657   -3.4160698   -1.5614858 
C     2.3219324   -4.3324955   -0.7760321 
C     3.6292882   -4.1488368   -0.4359735 
C     4.2610442   -3.0477408   -0.8944417 
H     1.8244687   -1.5786783   -2.6248048 
H     0.6333329   -3.5625551   -1.8191687 
H     1.7863235   -5.2064097   -0.4142939 
H     4.1519774   -4.8621780    0.1917537 
N     5.6089340   -2.6682556   -0.6519408 
C     5.6797692   -1.4320120   -1.3735174 
H     6.3467581   -3.1648820   -0.1019210 
H     6.5630520   -0.7992308   -1.4197092 
