48
Energy =
C     0.3982652    3.0746641   -7.6323349 
C     0.3305323    3.0018672   -6.2791445 
C     1.6057250    3.1499573   -8.2532653 
C     2.7383158    3.1526932   -7.5143013 
C     2.6765209    3.0795236   -6.1602837 
C     1.4702345    3.0054102   -5.5342932 
H    -0.6419851    2.9373866   -5.7978378 
H     3.6947131    3.2148036   -8.0226343 
H     3.5987993    3.0854526   -5.5820351 
H    -0.5158021    3.0709984   -8.2160155 
C     1.4025583    2.9050290   -4.0272787 
C     1.6304960    1.4562653   -3.5254941 
H     0.4283650    3.2872270   -3.6470264 
H     2.1713957    3.5858081   -3.5868136 
C     1.8633709    1.4411607   -2.0257093 
O     1.7110257    3.2237516   -9.6459209 
H     0.8182726    3.2252031  -10.1270310 
O     0.9364815    2.0329699   -1.1749928 
N     0.4902544    0.5945616   -3.8822957 
H     2.5601733    1.0447387   -3.9815280 
H    -0.3988892    1.0056388   -3.5082402 
H     0.4033360    0.5291373   -4.9230230 
N     2.9355168    0.6830895   -1.4473104 
C     4.3439517    1.0894791   -1.6673371 
H     2.6777302   -0.1889444   -0.9339959 
C     4.4937784    2.4987790   -2.2432671 
O     4.9729623    2.6826476   -3.5348429 
O     4.0943731    3.6204284   -1.5232627 
H     3.6562149    3.3621422   -0.6486061 
C     5.0638990    0.0341297   -2.5380176 
H     4.8544932    1.1307381   -0.6792533 
C     5.0464484   -1.3385061   -1.9048124 
H     6.1218630    0.3439339   -2.6977403 
H     4.6089566   -0.0052781   -3.5493510 
C     4.1739913   -2.3291571   -2.1506959 
C     3.1318395   -2.3784528   -3.0191106 
C     2.3774185   -3.5120969   -3.0633680 
C     2.6713397   -4.5715698   -2.2490102 
C     3.7234265   -4.4998205   -1.3844325 
C     4.4552458   -3.3656840   -1.3601709 
H     2.8869959   -1.5453935   -3.6697084 
H     1.5371310   -3.5656016   -3.7498954 
H     2.0626441   -5.4719143   -2.2890308 
H     3.9693839   -5.3277721   -0.7274138 
N     5.5712329   -3.0822806   -0.5283597 
C     5.8896283   -1.7464224   -0.9406835 
H     6.0338598   -3.6850556    0.1907924 
H     6.6917833   -1.1460080   -0.5168056 
