48
Energy =
C    -3.5284799    3.2685964   -1.8614305 
C    -2.2488467    3.4199895   -1.4351305 
C    -3.7978573    3.1545450   -3.1896877 
C    -2.7832360    3.1934730   -4.0829825 
C    -1.5021178    3.3444955   -3.6625448 
C    -1.2276534    3.4627280   -2.3344480 
H    -2.0488113    3.5026598   -0.3700705 
H    -3.0101526    3.1007060   -5.1392345 
H    -0.6993049    3.3684770   -4.3954702 
H    -4.3353321    3.2363003   -1.1373154 
C     0.2032981    3.6053141   -1.8664809 
C     0.9454006    2.2485407   -1.8647851 
H     0.2487318    4.0653398   -0.8546847 
H     0.7279914    4.3206470   -2.5424945 
C     2.4461046    2.4535217   -1.6970428 
O    -5.1046995    2.9936841   -3.6618731 
H    -5.8077733    2.9842715   -2.9311567 
O     3.1111048    3.1823446   -2.6776392 
N     0.3751271    1.3438080   -0.8470881 
H     0.8412620    1.7819767   -2.8717806 
H     0.2437408    1.8525823    0.0592613 
H    -0.5751256    1.0304919   -1.1587272 
N     3.1889756    1.7849393   -0.6565200 
C     4.6276155    1.4870195   -0.8252563 
H     2.6846880    1.4951786    0.2094033 
C     5.4947558    2.7298897   -1.0788916 
O     5.0134065    3.9936932   -0.7548927 
O     6.8328690    2.6240348   -1.4774517 
H     7.1965478    1.6909737   -1.3695454 
C     4.8238662    0.3057574   -1.8128971 
H     4.9960936    1.1198826    0.1575569 
C     4.4769798    0.6230857   -3.2550447 
H     4.2154774   -0.5487619   -1.4513082 
H     5.8709135   -0.0596953   -1.7743340 
C     3.3864499    0.2214185   -3.9332915 
C     2.3286705   -0.5300183   -3.5262953 
C     1.3276979   -0.7797157   -4.4181717 
C     1.3951857   -0.2822886   -5.6894001 
C     2.4645442    0.4683479   -6.0770121 
C     3.4435783    0.7007211   -5.1777846 
H     2.2541923   -0.9108746   -2.5128967 
H     0.4678141   -1.3716698   -4.1133677 
H     0.5915583   -0.4833712   -6.3935834 
H     2.5316681    0.8746826   -7.0806516 
N     4.6242302    1.4631040   -5.3775797 
C     5.2345630    1.3684430   -4.0820752 
H     4.9655836    1.9463613   -6.2401877 
H     6.1613773    1.8677183   -3.8012313 
