48
 energy: -9.290731762579 gnorm: 0.000999518931 xtb: 6.6.0 (2ccbbd7)
C            0.17329429203797        4.06575954252578        3.62897257440667
C           -0.09378385631012        2.87566539727983        2.99408663029248
C            1.31198638776132        4.80439265328066        3.30650024947443
C            2.16678572896000        4.30114654747550        2.32704381725863
C            1.88876540377960        3.11294004613752        1.69761633581292
C            0.75259809120178        2.38064916319311        2.01133540860496
H           -0.97145231871851        2.31191666468376        3.26021131487539
H            3.04652291964547        4.86783014845248        2.07846794450860
H            2.54730908131426        2.74471770478161        0.93300217611844
H           -0.49329472353125        4.43917094161217        4.38552955201590
C            0.45488804390485        1.05954841844459        1.35835100611777
C            0.86801808079849        0.95438178533462       -0.11675662261319
H           -0.61629412039565        0.85278008011177        1.44435702373224
H            0.95988252113151        0.26392662904464        1.91477633905057
C            2.36145001030367        0.79075518631126       -0.24360714701838
O            1.60875721595843        6.00342461327386        3.92503946770591
H            0.91781724660007        6.22115667371833        4.58733733141455
O            2.87931136049143       -0.18120068268346        0.26476753107897
N            0.23970973717065       -0.17287983192621       -0.79376033838832
H            0.56507150775842        1.87325531852840       -0.64099472318612
H            0.63069242696400       -1.02375060707424       -0.41281831177145
H           -0.75687408566950       -0.18736505581201       -0.61914218889542
N            3.07742088396840        1.73056221704974       -0.95664513678431
C            4.40092745993526        1.36714118197823       -1.42858945227725
H            2.58697626145917        2.34559254912277       -1.60778731874696
C            5.14635699585907        2.57109970690975       -1.97363568961367
O            5.99749155773181        2.38497809226441       -2.81633611548510
O            4.81505972147656        3.77599192313894       -1.44954872633219
H            4.13302287417655        3.67024106789677       -0.74613627226690
C            4.28298400524259        0.24667014611460       -2.46522841000944
H            4.95569297419697        1.00071050600152       -0.55170390568451
C            3.34478165495451        0.58356239889259       -3.57593452402687
H            3.92708564746115       -0.66409587217944       -1.97086396149828
H            5.27209821026730        0.01799852444056       -2.87437986587729
C            3.68252592225188        1.17569832079463       -4.83010618568303
C            4.89433610992828        1.62463147035719       -5.38239607671791
C            4.88233673773343        2.18134716156527       -6.63090756778830
C            3.68664410222682        2.31435838228053       -7.35517896506614
C            2.49204757798281        1.90404217718432       -6.82981279105776
C            2.48344422623955        1.33274639209493       -5.55103597676350
H            5.79440736694612        1.58330089116363       -4.79388732955079
H            5.80275059996262        2.54055716927964       -7.06039152195950
H            3.71104995239675        2.76042969825646       -8.33558057060529
H            1.56928035987855        2.01818782579562       -7.36965684185882
N            1.45457507402195        0.87765596211139       -4.74668881330964
C            1.97775148712044        0.44762180879384       -3.55441389622948
H            0.46355063439052        0.92224144227428       -4.99076607198848
H            1.38680408055852        0.12154233008968       -2.71192248852475
