48
Energy =
C    -0.0612540   -2.6780414    3.9589776 
C     0.1088015   -2.6941262    2.6130672 
C     0.8624246   -2.0823788    4.7560208 
C     1.9501090   -1.5076562    4.2001894 
C     2.1274014   -1.5230689    2.8553960 
C     1.1995110   -2.1057037    2.0407387 
H    -0.6405840   -3.1828431    1.9954702 
H     2.6790189   -1.0327284    4.8469425 
H     3.0086030   -1.0489350    2.4603152 
H    -0.9372144   -3.1457498    4.3955577 
C     1.3495149   -2.1980181    0.5233084 
C     2.2412006   -1.1597021   -0.2214420 
H     0.3318052   -2.1087627    0.0796619 
H     1.6979166   -3.2233295    0.2736462 
C     1.8594280    0.3029513    0.0219208 
O     0.7217758   -2.0525912    6.1472188 
H    -0.1320758   -2.4839954    6.4838512 
O     0.9818101    0.6412311    1.0433178 
N     3.6851853   -1.4286356   -0.0435462 
H     2.0250856   -1.3178304   -1.3011337 
H     4.1262955   -0.7642951    0.6321296 
H     3.8612590   -2.4000447    0.3064175 
N     2.1001684    1.2859880   -0.9927691 
C     3.4773354    1.7819312   -1.1750019 
H     1.3186869    1.5367970   -1.6410687 
C     3.5100991    3.3015044   -1.3065069 
O     2.4240659    3.9795715   -1.8474353 
O     4.6597691    4.0292961   -0.9910824 
H     5.3943188    3.4477383   -0.6171779 
C     4.1346939    1.0880268   -2.3911227 
H     4.0824282    1.5524240   -0.2695523 
C     3.3762382    1.3078083   -3.6852325 
H     4.2023389   -0.0038197   -2.1959152 
H     5.1836281    1.4377002   -2.5070941 
C     3.5179293    2.3270521   -4.5499004 
C     4.3600552    3.3923920   -4.5160947 
C     4.2996812    4.3000480   -5.5323547 
C     3.4125370    4.1300617   -6.5587835 
C     2.5792148    3.0515103   -6.5744979 
C     2.6559310    2.1687283   -5.5565442 
H     5.0612486    3.5368695   -3.7000815 
H     4.9556382    5.1673820   -5.5209276 
H     3.3676727    4.8605922   -7.3626604 
H     1.8676280    2.9031933   -7.3795886 
N     1.8830697    0.9891130   -5.3854812 
C     2.4120456    0.4929167   -4.1494838 
H     1.1357594    0.5922474   -6.0003004 
H     2.0734462   -0.4151829   -3.6583228 
