48
Energy =
C     2.0077768    0.4561019    3.4635838 
C     0.9322535    0.5981062    2.6462051 
C     2.5297943   -0.7772080    3.6966250 
C     1.9706612   -1.8610449    3.1124230 
C     0.8964686   -1.7245281    2.2943665 
C     0.3713028   -0.4917984    2.0531215 
H     0.5202166    1.5903983    2.4632333 
H     2.3954064   -2.8397926    3.3081977 
H     0.4635220   -2.6079453    1.8322625 
H     2.4510171    1.3299082    3.9296913 
C    -0.8161130   -0.3332837    1.1229346 
C    -0.4196575   -0.0222864   -0.3437766 
H    -1.4782101    0.4807623    1.4971965 
H    -1.4422805   -1.2521616    1.1444628 
C     0.3221628    1.2996768   -0.4897872 
O     3.6383122   -0.9576998    4.5291136 
H     3.9945123   -0.1008063    4.9382329 
O    -0.0643432    2.3851062    0.2907623 
N     0.3281038   -1.1467682   -0.9319720 
H    -1.3594645    0.1181390   -0.9253113 
H     1.2272060   -1.2825083   -0.4135149 
H    -0.2292550   -2.0277190   -0.8360109 
N     1.1271006    1.5575634   -1.6443864 
C     2.4187762    2.2315398   -1.4224373 
H     0.8109880    1.2189511   -2.5816157 
C     2.6643967    3.3330207   -2.4495315 
O     2.1469153    3.2172135   -3.7348795 
O     3.4954985    4.4187703   -2.1618199 
H     3.8001812    4.4245106   -1.2003982 
C     3.5521884    1.1820102   -1.4023157 
H     2.4036093    2.7491836   -0.4355604 
C     3.7752699    0.5250015   -2.7517752 
H     3.3044078    0.3994565   -0.6515200 
H     4.4960520    1.6541800   -1.0541520 
C     4.5996944    0.9396800   -3.7295150 
C     5.4348829    2.0101947   -3.7732368 
C     6.1692978    2.2150334   -4.9041926 
C     6.0620593    1.3560718   -5.9625507 
C     5.2175853    0.2881366   -5.8971119 
C     4.5007519    0.1074554   -4.7680244 
H     5.5138071    2.7029137   -2.9414247 
H     6.8357235    3.0719752   -4.9672388 
H     6.6463019    1.5296492   -6.8627068 
H     5.1153490   -0.3992417   -6.7298607 
N     3.5668770   -0.9290062   -4.5031141 
C     3.1398867   -0.5803882   -3.1800310 
H     3.2779302   -1.7325556   -5.1067195 
H     2.3923513   -1.1288349   -2.6159830 
