48
Energy =
C    -0.6480308   -0.9528882   -3.5435080 
C    -0.0316243   -1.6914535   -2.5887029 
C    -1.3975939    0.1272469   -3.1958396 
C    -1.5427608    0.4468082   -1.8886098 
C    -0.9395365   -0.2974628   -0.9282855 
C    -0.1750582   -1.3703501   -1.2730221 
H     0.5860833   -2.5349662   -2.8864576 
H    -2.1422985    1.3092125   -1.6169360 
H    -1.0553589   -0.0147034    0.1156905 
H    -0.5264824   -1.2211198   -4.5871806 
C     0.5651163   -2.1581671   -0.2123268 
C     2.0066381   -1.6346001   -0.0299776 
H     0.5932685   -3.2297522   -0.5088121 
H     0.0221771   -2.1167657    0.7589371 
C     2.0199312   -0.2326264    0.5657206 
O    -2.0198401    0.9276956   -4.1613901 
H    -1.9121215    0.5838778   -5.1093405 
O     1.5115753   -0.0261228    1.8454839 
N     2.7928552   -2.5619951    0.7963928 
H     2.4878633   -1.5885283   -1.0281364 
H     2.3261688   -2.6795881    1.7283534 
H     2.8169262   -3.5024225    0.3374196 
N     2.1939119    0.9079714   -0.2867573 
C     3.5575548    1.4416675   -0.4241434 
H     1.3684658    1.3207880   -0.7763444 
C     3.5316648    2.9432681   -0.6274832 
O     3.8735561    3.7925426    0.4148090 
O     3.1988036    3.4882998   -1.8676765 
H     2.9421779    2.6752617   -2.6249387 
C     4.2933951    0.7215607   -1.5825039 
H     4.1227971    1.2965263    0.5283443 
C     3.4658186    0.6357017   -2.8595711 
H     4.5786710   -0.2876197   -1.2211236 
H     5.2447638    1.2511592   -1.8175245 
C     3.3281119   -0.4529699   -3.6364488 
C     3.8864453   -1.6891032   -3.4974895 
C     3.5966886   -2.6468101   -4.4213829 
C     2.7696927   -2.3649657   -5.4678672 
C     2.2289496   -1.1231662   -5.5955648 
C     2.5228088   -0.1876895   -4.6655177 
H     4.5524238   -1.9332174   -2.6776955 
H     4.0291029   -3.6404632   -4.3258534 
H     2.5437690   -3.1335693   -6.2031517 
H     1.5705094   -0.8860299   -6.4241931 
N     2.0301253    1.1470419   -4.6552906 
C     2.6529122    1.7749493   -3.4689197 
H     1.3843049    1.5406507   -5.3860948 
H     2.2433026    2.8118656   -3.5778906 
