48
Energy =
C     1.2426953    4.3378634    3.1587590 
C     1.0855305    3.0185835    2.8799827 
C     0.3440436    5.2462221    2.6932704 
C    -0.7034978    4.8279869    1.9468234 
C    -0.8638539    3.5105925    1.6622370 
C     0.0258066    2.5962265    2.1357338 
H     1.8211457    2.3007469    3.2439950 
H    -1.4095022    5.5634905    1.5767535 
H    -1.7075932    3.1959925    1.0535101 
H     2.0913778    4.6649541    3.7503326 
C    -0.1340638    1.1294558    1.7989427 
C     0.6242334    0.7551525    0.5063065 
H    -1.2134166    0.8877113    1.6831405 
H     0.2361554    0.5025431    2.6422787 
C     2.1215432    0.9704667    0.6580836 
O     0.4743468    6.6118530    2.9645199 
H     1.2956041    6.8469071    3.5114561 
O     2.8124133    0.3660828    1.7069032 
N     0.3338434   -0.6407073    0.1411162 
H     0.2802697    1.4183994   -0.3210745 
H     0.6062915   -1.2696729    0.9351406 
H    -0.6955731   -0.7568496   -0.0112977 
N     2.8491538    1.7354545   -0.3092272 
C     3.9879843    1.0645535   -0.9581124 
H     2.5326366    2.7020537   -0.5518628 
C     4.8807808    2.0608380   -1.6947446 
O     4.3065898    3.1252932   -2.3812546 
O     6.2636691    1.8860721   -1.7748289 
H     6.5735810    1.0552443   -1.2927690 
C     3.4654023   -0.0232553   -1.9244826 
H     4.6161672    0.6083559   -0.1593084 
C     4.5125272   -1.0819562   -2.1705192 
H     3.1445322    0.4414992   -2.8845977 
H     2.5589416   -0.5183781   -1.5147618 
C     4.8771495   -2.0512915   -1.3174284 
C     4.4150280   -2.3313883   -0.0714480 
C     4.9740012   -3.3758343    0.6058332 
C     5.9754162   -4.1123824    0.0346269 
C     6.4268644   -3.8066080   -1.2154983 
C     5.8567212   -2.7704898   -1.8654949 
H     3.6298170   -1.7328667    0.3886087 
H     4.6272872   -3.6187147    1.6081932 
H     6.4194620   -4.9406009    0.5818572 
H     7.2270971   -4.3741771   -1.6790636 
N     6.1924455   -2.2717254   -3.1527656 
C     5.2794925   -1.1714958   -3.2699716 
H     6.9088847   -2.6144908   -3.8337758 
H     5.2405859   -0.4890538   -4.1174036 
