48
Energy =
C     3.0752085    0.0287473    4.6880278 
C     2.2361255    0.4734861    3.7187037 
C     2.5948603   -0.7174170    5.7182010 
C     1.2767417   -1.0128897    5.7712742 
C     0.4336066   -0.5708129    4.8051098 
C     0.9085791    0.1738446    3.7680934 
H     2.6352226    1.0651119    2.8997258 
H     0.9048753   -1.6081123    6.5973832 
H    -0.6220696   -0.8182274    4.8667588 
H     4.1309188    0.2704572    4.6350694 
C    -0.0287730    0.6694050    2.6846721 
C    -0.2254123   -0.3255728    1.5127078 
H     0.3460977    1.6373675    2.2816562 
H    -1.0189816    0.9087686    3.1294936 
C     1.0640413   -0.6250102    0.7609577 
O     3.4316288   -1.1899162    6.7346806 
H     4.4044871   -0.9292424    6.6178573 
O     2.0494339   -1.4390121    1.3156194 
N    -0.8915540   -1.5607270    1.9578130 
H    -0.8958917    0.1749886    0.7764418 
H    -0.2375534   -2.1131189    2.5626903 
H    -1.7384841   -1.3273171    2.5258095 
N     1.2394155   -0.1543658   -0.5820295 
C     2.4266409    0.7261966   -0.6853928 
H     1.3322746   -1.0068283   -1.1760959 
C     2.1477271    2.0702785   -0.0062122 
O     0.9103857    2.6821825   -0.1661292 
O     3.1258811    2.7353308    0.7355543 
H     4.0061539    2.2424496    0.7505284 
C     2.7605897    0.9519743   -2.1795768 
H     3.3102394    0.3009670   -0.1640555 
C     3.6851679   -0.0290949   -2.9043966 
H     3.2341616    1.9565939   -2.2847298 
H     1.8047535    1.0227503   -2.7488635 
C     4.1465562   -1.2731918   -2.5967943 
C     3.9655469   -2.0717804   -1.5057743 
C     4.5628175   -3.2975256   -1.4739387 
C     5.3301699   -3.7192199   -2.5184457 
C     5.5060873   -2.9185191   -3.6021532 
C     4.9070331   -1.7095341   -3.6129779 
H     3.3739189   -1.7865002   -0.6575545 
H     4.4260717   -3.9440699   -0.6078922 
H     5.8027550   -4.6984481   -2.4855713 
H     6.1127790   -3.2392501   -4.4428836 
N     4.9767309   -0.7553247   -4.6555422 
C     4.1622946    0.2889911   -4.1242278 
H     5.4865422   -0.8034938   -5.5681525 
H     3.9511566    1.2179731   -4.6516271 
