48
Energy =
C     2.1015833    4.6615084    2.2839778 
C     1.7528089    3.5150364    1.6481781 
C     1.2603670    5.7298046    2.2776718 
C     0.0766074    5.6444598    1.6287846 
C    -0.2764876    4.5008730    0.9891126 
C     0.5572445    3.4250779    1.0016801 
H     2.4404529    2.6733953    1.6523765 
H    -0.5822925    6.5061235    1.6235822 
H    -1.2269163    4.4551718    0.4638208 
H     3.0558410    4.7233318    2.7947011 
C     0.1776759    2.1593416    0.2634527 
C     0.5641828    2.2300960   -1.2303973 
H    -0.9189949    1.9973259    0.3525488 
H     0.6596987    1.2764524    0.7374872 
C     2.0680286    2.3509514   -1.4192179 
O     1.5859935    6.9243288    2.9290605 
H     2.5005178    6.9233682    3.3675670 
O     2.5692349    3.4645949   -1.6356573 
N     0.0169527    1.0607017   -1.9395796 
H     0.1371765    3.1607663   -1.6797280 
H     0.2572148    0.1822621   -1.4236834 
H    -1.0275461    1.1287117   -1.9647131 
N     2.9370276    1.2111138   -1.2912063 
C     4.1984332    1.3122172   -2.0494243 
H     2.6747779    0.3932517   -0.6992638 
C     4.3838270    2.7356961   -2.5765521 
O     5.3887066    3.0198095   -3.4965105 
O     3.6484048    3.6450081   -2.1654655 
H     3.4411841    3.6823086   -1.1896145 
C     4.1860206    0.2863590   -3.1994563 
H     5.0572562    1.1160675   -1.3720210 
C     4.1411982   -1.1339484   -2.6825397 
H     5.1009280    0.4089714   -3.8226248 
H     3.3245361    0.4966345   -3.8698563 
C     3.0673071   -1.9368516   -2.6062785 
C     1.7821347   -1.7151350   -2.9843868 
C     0.8673036   -2.7072468   -2.7875098 
C     1.2458139   -3.8936964   -2.2229025 
C     2.5419958   -4.0947241   -1.8512280 
C     3.4283223   -3.0978030   -2.0567006 
H     1.4759672   -0.7731721   -3.4302468 
H    -0.1679173   -2.5525063   -3.0824905 
H     0.5110676   -4.6802627   -2.0705874 
H     2.8591368   -5.0295305   -1.4016607 
N     4.8121185   -3.1001653   -1.7358845 
C     5.1971654   -1.7896462   -2.1702872 
H     5.3897271   -3.8531373   -1.2966529 
H     6.2031615   -1.3842898   -2.0859143 
