48
Energy =
C     0.0181724   -1.4483574    3.2648936 
C     1.1132907   -0.6539043    3.1597578 
C    -1.2264251   -0.9026260    3.2451738 
C    -1.3667964    0.4359953    3.1252999 
C    -0.2759435    1.2350849    3.0199864 
C     0.9760772    0.6952458    3.0256911 
H     2.0993063   -1.1089384    3.1927442 
H    -2.3648699    0.8596177    3.1174854 
H    -0.4140607    2.3091450    2.9336710 
H     0.1422655   -2.5211838    3.3682868 
C     2.2017834    1.5869051    2.9079176 
C     2.8010138    1.6660459    1.4764512 
H     2.9850699    1.2160864    3.6080130 
H     1.9619503    2.6171694    3.2517046 
C     3.2877970    0.3235779    0.9589990 
O    -2.3756907   -1.6919225    3.3499502 
H    -2.1864737   -2.6845470    3.4401141 
O     4.0947454   -0.4602679    1.7777594 
N     1.8683949    2.3066891    0.5235565 
H     3.7362951    2.2740389    1.5418179 
H     0.9001364    2.4055015    0.8990006 
H     2.2075096    3.2723989    0.2943437 
N     3.3266433    0.0800859   -0.4518831 
C     4.6022998    0.3639038   -1.1344974 
H     2.4915668   -0.3520853   -0.9047239 
C     4.7835071    1.8612733   -1.3725470 
O     5.9614760    2.4789178   -0.9730581 
O     3.8026004    2.6341112   -1.9956876 
H     2.9618418    2.0958432   -2.1430593 
C     4.6601941   -0.4446076   -2.4461809 
H     5.4496595    0.0357106   -0.4855853 
C     6.0349517   -0.3894302   -3.0777118 
H     3.8877310   -0.0865400   -3.1603200 
H     4.4158799   -1.5074900   -2.2234153 
C     6.4710074    0.4825498   -4.0019291 
C     5.8177971    1.5000516   -4.6203381 
C     6.5023061    2.2540116   -5.5275266 
C     7.8143910    1.9833198   -5.8014019 
C     8.4506646    0.9577613   -5.1675441 
C     7.7520135    0.2261694   -4.2740834 
H     4.7798884    1.7266019   -4.3980312 
H     6.0030316    3.0799837   -6.0281880 
H     8.3542309    2.5927733   -6.5215643 
H     9.4928736    0.7340051   -5.3673328 
N     8.2276385   -0.8677089   -3.5024347 
C     7.0551879   -1.2015191   -2.7486667 
H     9.1739841   -1.3120340   -3.4942642 
H     7.0099783   -1.9879760   -1.9986234 
