48
Energy =
C     6.9660310    1.4000703    0.6907495 
C     5.9461039    0.7196147    1.2795519 
C     7.6383018    0.8461441   -0.3563734 
C     7.2946444   -0.3709667   -0.7978860 
C     6.2870430   -1.0549971   -0.2235811 
C     5.5969491   -0.5175491    0.8224239 
H     5.4021449    1.1726883    2.1049897 
H     7.8444129   -0.8024828   -1.6133852 
H     6.0617066   -2.0287772   -0.6336963 
H     7.2381367    2.3857178    1.0524058 
C     4.4534016   -1.2750027    1.4689533 
C     3.0894596   -1.0964814    0.7463722 
H     4.3466268   -0.9509942    2.5271451 
H     4.7204019   -2.3537233    1.5130889 
C     2.7974633    0.3604252    0.3843592 
O     8.6833190    1.4990561   -1.0075621 
H     8.9160862    2.3970479   -0.5989802 
O     2.8203145    1.3104098    1.4020354 
N     2.9768718   -2.0120664   -0.4014690 
H     2.2913450   -1.3657274    1.4745791 
H     3.8115336   -1.8817758   -1.0153670 
H     3.0387718   -2.9992033   -0.0561801 
N     2.5247812    0.8053968   -0.9610856 
C     3.6270349    1.6400453   -1.5089493 
H     2.2811719   -0.0104037   -1.5620092 
C     3.1502110    3.0576808   -1.7871092 
O     1.8245560    3.2940214   -2.1316790 
O     4.0449257    4.1284182   -1.8347348 
H     4.9906718    3.8500008   -1.6174533 
C     4.2843371    1.0038523   -2.7635381 
H     4.4427426    1.7638410   -0.7631909 
C     3.3273922    0.7501908   -3.9183417 
H     4.7853660    0.0651593   -2.4510639 
H     5.0989243    1.6690178   -3.1252102 
C     2.9709242   -0.4429397   -4.4303783 
C     3.3550032   -1.6990684   -4.0799434 
C     2.8395542   -2.7548632   -4.7718641 
C     1.9631242   -2.5459158   -5.7995107 
C     1.6009872   -1.2787130   -6.1448076 
C     2.1222350   -0.2502541   -5.4433044 
H     4.0647169   -1.8802599   -3.2815046 
H     3.1321463   -3.7681745   -4.5060353 
H     1.5580209   -3.3934099   -6.3471894 
H     0.9128341   -1.0942779   -6.9632110 
N     1.8890347    1.1324847   -5.6566415 
C     2.7142955    1.7112069   -4.6367792 
H     1.2897305    1.6072168   -6.3712682 
H     2.8285941    2.7835988   -4.4801603 
