48
Energy =
C     1.8124391   -0.5006722    5.0258950 
C     2.0874137    0.4950221    4.1455713 
C     1.9453780   -1.8009768    4.6508004 
C     2.3525348   -2.0956567    3.3956273 
C     2.6320344   -1.1042129    2.5128047 
C     2.4994111    0.1997953    2.8810829 
H     1.9742226    1.5288407    4.4604800 
H     2.4480910   -3.1358546    3.1051820 
H     2.9502295   -1.3617554    1.5065881 
H     1.4855518   -0.2541926    6.0302782 
C     2.8013400    1.3110043    1.8952197 
C     1.6031136    1.6893849    0.9869195 
H     3.6718550    1.0208849    1.2651599 
H     3.1367237    2.2184493    2.4446704 
C     1.2311777    0.5813765    0.0095357 
O     1.6722572   -2.8504789    5.5343315 
H     1.3635431   -2.5466810    6.4511496 
O     0.5046706   -0.5267926    0.4287001 
N     0.4424300    2.1246876    1.7822536 
H     1.9261589    2.5515396    0.3576902 
H     0.0400179    1.3045018    2.2986845 
H     0.7396970    2.8317655    2.4941826 
N     1.5524379    0.6970562   -1.3802438 
C     2.9480432    0.4208743   -1.7694284 
H     0.7899786    0.9739145   -2.0352941 
C     3.8377822    1.6522185   -1.6427600 
O     5.1387249    1.4971761   -1.1839636 
O     3.3967452    2.9326936   -1.9740099 
H     2.4815321    2.9085336   -2.3974001 
C     2.9994985   -0.2260977   -3.1716899 
H     3.3803509   -0.3313907   -1.0680219 
C     2.5088217    0.6759380   -4.2851780 
H     2.3874706   -1.1560524   -3.1543254 
H     4.0399835   -0.5536253   -3.3913692 
C     3.2278241    1.5787929   -4.9725557 
C     4.5397174    1.9139176   -4.8662017 
C     5.0311545    2.8818774   -5.6917454 
C     4.2157852    3.4902637   -6.6054116 
C     2.9030964    3.1345823   -6.6978748 
C     2.4399654    2.1764985   -5.8677529 
H     5.1903861    1.4381511   -4.1378396 
H     6.0759294    3.1739446   -5.6181639 
H     4.6151356    4.2619802   -7.2583627 
H     2.2425982    3.6069703   -7.4166878 
N     1.1172016    1.6640051   -5.8020686 
C     1.2492181    0.6935726   -4.7557660 
H     0.2775703    1.9294885   -6.3659685 
H     0.4424945    0.0526927   -4.4048157 
