48
Energy =
C     0.6491957    4.6527726   -0.3584332 
C     0.8638069    3.4643879    0.2588900 
C     1.4551829    5.7151492   -0.0945030 
C     2.4736297    5.5793206    0.7851329 
C     2.6937780    4.3923121    1.4054739 
C     1.8898172    3.3250138    1.1448731 
H     0.2124344    2.6226730    0.0332994 
H     3.1103935    6.4346394    0.9852989 
H     3.5166398    4.3048772    2.1102910 
H    -0.1689228    4.7504892   -1.0634751 
C     2.1361033    1.9938519    1.8255532 
C     3.0461007    1.0366159    1.0174494 
H     1.1576841    1.4901416    2.0046933 
H     2.5721755    2.1568611    2.8357668 
C     2.4778789    0.7036946   -0.3620741 
O     1.2586586    6.9553639   -0.7101390 
H     0.4862486    6.9745694   -1.3671341 
O     1.2887037   -0.0116639   -0.4116861 
N     4.4336643    1.5314050    0.9781131 
H     3.0460746    0.0538174    1.5466303 
H     4.4903593    2.4774687    0.5295745 
H     4.8048969    1.6338373    1.9518231 
N     2.9213184    1.3658684   -1.5617093 
C     4.2461364    0.8705415   -2.0220552 
H     2.9312378    2.3906050   -1.3565871 
C     5.2025239    2.0158774   -2.3342920 
O     6.4331870    2.0643436   -1.6945679 
O     4.8718954    3.0324113   -3.2290779 
H     3.9583236    2.8898694   -3.6343286 
C     4.0526369   -0.0243381   -3.2645760 
H     4.7766502    0.2758131   -1.2379576 
C     3.3834488   -1.3344134   -2.9136475 
H     5.0422924   -0.2492195   -3.7248612 
H     3.4662886    0.5147222   -4.0389050 
C     2.0763555   -1.6298428   -3.0045600 
C     1.0355933   -0.8670082   -3.4274678 
C    -0.2140254   -1.4139095   -3.4215449 
C    -0.4030509   -2.7003281   -2.9979228 
C     0.6563111   -3.4465655   -2.5743700 
C     1.8825442   -2.8828748   -2.5888641 
H     1.1807890    0.1604783   -3.7445188 
H    -1.0646226   -0.8197677   -3.7452470 
H    -1.4027014   -3.1269017   -2.9906833 
H     0.5231420   -4.4659493   -2.2291003 
N     3.1072153   -3.4824816   -2.1880130 
C     4.0275157   -2.4094607   -2.4254190 
H     3.2846999   -4.4464923   -1.8235459 
H     5.0969292   -2.4633100   -2.2338949 
