48
Energy =
C     3.3519307    4.8308901   -7.4253420 
C     3.5544657    3.9105842   -6.4482545 
C     2.0968151    5.0691246   -7.8910580 
C     1.0510976    4.3851513   -7.3742530 
C     1.2466356    3.4640339   -6.3971307 
C     2.5013531    3.2176141   -5.9309722 
H     4.5658289    3.7390017   -6.0847064 
H     0.0547823    4.5871571   -7.7529367 
H     0.3915048    2.9282656   -5.9923586 
H     4.1959664    5.3778438   -7.8327317 
C     2.7150652    2.2046094   -4.8286274 
C     2.3443637    2.7651827   -3.4319436 
H     3.7696195    1.8456632   -4.8246794 
H     2.0928801    1.3082820   -5.0447450 
C     2.4674562    1.7253829   -2.3250414 
O     1.8539890    6.0100260   -8.8961880 
H     2.6866072    6.4826648   -9.2316302 
O     2.0028521    2.0239541   -1.0520662 
N     3.1562160    3.9524461   -3.1175545 
H     1.2658045    3.0532692   -3.4248718 
H     4.1752182    3.7805944   -3.2961466 
H     2.8585533    4.7619941   -3.7100201 
N     3.0743651    0.4454860   -2.5533714 
C     4.4362823    0.2573495   -2.0236127 
H     2.5770871   -0.2633406   -3.1362444 
C     5.4104923    1.1855781   -2.7067641 
O     6.7664658    1.2974037   -2.4259209 
O     5.8873014    2.3766681   -2.1616776 
H     5.2872729    2.7080761   -1.4108924 
C     4.8736837   -1.2083254   -2.2144415 
H     4.4606156    0.5110991   -0.9377083 
C     4.1151062   -2.1366962   -1.2939391 
H     5.9646459   -1.3048638   -2.0021966 
H     4.7325845   -1.5144538   -3.2744108 
C     4.3266170   -2.3091554    0.0198567 
C     5.2513009   -1.7386144    0.8342161 
C     5.2540583   -2.0851710    2.1534709 
C     4.3434364   -2.9864585    2.6328903 
C     3.4244726   -3.5465312    1.7952274 
C     3.4425371   -3.1876817    0.4942514 
H     5.9738535   -1.0209020    0.4538656 
H     5.9831747   -1.6400848    2.8266131 
H     4.3506694   -3.2559567    3.6861042 
H     2.6938197   -4.2608774    2.1588228 
N     2.5774966   -3.6450999   -0.5361695 
C     3.0793684   -2.9107452   -1.6612628 
H     1.7920305   -4.3333243   -0.4847098 
H     2.6707864   -2.9703762   -2.6665779 
