48
Energy =
C    -1.3159975    2.3267904   -7.0196529 
C    -0.8861938    1.9513051   -5.7883328 
C    -1.7851547    1.3961287   -7.8931672 
C    -1.8204356    0.0945054   -7.5276267 
C    -1.3917768   -0.2868732   -6.2978010 
C    -0.9240774    0.6413476   -5.4187315 
H    -0.5117436    2.7063922   -5.1014727 
H    -2.1948969   -0.6382641   -8.2339436 
H    -1.4225557   -1.3388441   -6.0260559 
H    -1.2824192    3.3728330   -7.3044835 
C    -0.4288893    0.2226091   -4.0521726 
C     1.1136228    0.1663168   -3.9788756 
H    -0.8488350   -0.7662966   -3.7595919 
H    -0.8141866    0.9430948   -3.2959456 
C     1.5699104    0.0306972   -2.5359093 
O    -2.2345694    1.7492401   -9.1698642 
H    -2.1759060    2.7422159   -9.3676181 
O     1.0995235   -1.0327366   -1.7721288 
N     1.6377344   -0.9418046   -4.7964097 
H     1.5368824    1.1256295   -4.3559679 
H     1.2145619   -1.8463489   -4.4731302 
H     1.3647765   -0.8075009   -5.7985578 
N     2.1239819    1.1655993   -1.8536647 
C     3.6075454    1.3458436   -1.9182169 
H     1.8242535    1.0803691   -0.8530385 
C     3.9657080    2.7846376   -2.2913470 
O     5.2080722    3.2745773   -1.9117134 
O     3.1448662    3.5966156   -3.0741640 
H     2.2421523    3.1800941   -3.2299623 
C     4.3882425    0.3341628   -2.8310771 
H     4.0216419    1.2584420   -0.8843407 
C     4.9794805   -0.8363037   -2.0579879 
H     5.2167497    0.8800398   -3.3286675 
H     3.7979307   -0.0512522   -3.6861426 
C     6.2436598   -1.3001921   -2.1332167 
C     7.3011537   -0.8594046   -2.8682068 
C     8.4898381   -1.5192650   -2.7591818 
C     8.6077302   -2.5989575   -1.9302631 
C     7.5373957   -3.0263894   -1.2044598 
C     6.3722352   -2.3570959   -1.3268772 
H     7.2269909   -0.0043652   -3.5311321 
H     9.3495679   -1.1835972   -3.3348311 
H     9.5590596   -3.1192062   -1.8495154 
H     7.6136800   -3.8830307   -0.5432090 
N     5.1505529   -2.6472421   -0.6678102 
C     4.2996466   -1.6224596   -1.2002887 
H     4.9351284   -3.4036515    0.0228412 
H     3.2513160   -1.5053988   -0.9360539 
