48
Energy =
C    -3.0365172   -2.4094759    0.9135443 
C    -1.8097340   -2.2384027    0.3592348 
C    -4.1570186   -2.1843911    0.1765046 
C    -4.0411394   -1.7889677   -1.1116385 
C    -2.8168151   -1.6162074   -1.6711872 
C    -1.6923716   -1.8435652   -0.9382775 
H    -0.9227012   -2.4200986    0.9608444 
H    -4.9422630   -1.6115463   -1.6881838 
H    -2.7459649   -1.2935392   -2.7063895 
H    -3.1186424   -2.7257093    1.9477408 
C    -0.3239381   -1.6364896   -1.5486462 
C     0.3236079   -0.2979670   -1.1126706 
H    -0.3696680   -1.6861699   -2.6592597 
H     0.3336826   -2.4813153   -1.2420417 
C     1.7721726   -0.1733161   -1.5799330 
O    -5.4364038   -2.3497985    0.7174815 
H    -5.4371870   -2.6502334    1.6860359 
O     2.3237058   -1.1986629   -2.3418103 
N    -0.4720896    0.8444261   -1.5920500 
H     0.3682613   -0.2700881    0.0001092 
H    -0.6345219    0.7594112   -2.6231558 
H    -1.4072859    0.8472625   -1.1213933 
N     2.5644800    0.9496299   -1.1176475 
C     3.9886881    1.2485184   -1.4719186 
H     2.0105818    1.6404915   -0.5691504 
C     4.2599221    2.7720046   -1.5482541 
O     5.5052094    3.2386663   -1.9435621 
O     3.3361994    3.7374784   -1.1530601 
H     2.9283505    3.5106667   -0.2624199 
C     4.4516220    0.4943220   -2.7555040 
H     4.6237475    0.8952449   -0.6316512 
C     5.8456315    0.8322375   -3.2470122 
H     3.7005896    0.6432500   -3.5617629 
H     4.4845518   -0.5920600   -2.5418679 
C     7.0060373    0.3958392   -2.7304309 
C     7.2338391   -0.4302331   -1.6766628 
C     8.5253897   -0.7224409   -1.3498418 
C     9.5579827   -0.1913458   -2.0722102 
C     9.3050844    0.6348894   -3.1267587 
C     8.0190118    0.9083338   -3.4310090 
H     6.4164188   -0.8526906   -1.1002144 
H     8.7348623   -1.3794575   -0.5092478 
H    10.5846386   -0.4269045   -1.8036804 
H    10.1122935    1.0664274   -3.7085911 
N     7.5431411    1.7364181   -4.4823379 
C     6.1246731    1.6383958   -4.2883131 
H     8.0846198    2.2585073   -5.2085348 
H     5.3838302    2.1898502   -4.8642000 
