48
Energy =
C     2.9083200    4.2698116    3.6778304 
C     3.2188965    3.3339977    2.7458373 
C     2.5879751    3.8929100    4.9443686 
C     2.5807078    2.5801138    5.2695869 
C     2.8908347    1.6394379    4.3417637 
C     3.2154021    2.0115323    3.0730644 
H     3.4708835    3.6527360    1.7358364 
H     2.3222811    2.2930186    6.2831527 
H     2.8753551    0.5893125    4.6215227 
H     2.9166913    5.3199745    3.4055339 
C     3.5471848    0.9689197    2.0288689 
C     2.3629830    0.7134333    1.0644596 
H     3.8591329    0.0119140    2.5035228 
H     4.4382782    1.3203229    1.4573574 
C     2.8139179   -0.0819675   -0.1466160 
O     2.2611677    4.8309434    5.9284826 
H     2.2952438    5.7928445    5.6077662 
O     3.3367418   -1.3607438    0.0058884 
N     1.2646046    0.0218411    1.7571051 
H     1.9852457    1.6876185    0.6699979 
H     1.6151287   -0.8764700    2.1692211 
H     0.9022709    0.6153260    2.5390429 
N     2.9361066    0.5619908   -1.4175315 
C     4.2066205    1.2636088   -1.6792350 
H     2.1663688    0.4429019   -2.1125408 
C     4.1455228    2.6942408   -1.1696801 
O     5.0995055    3.1295897   -0.2599070 
O     3.1390249    3.5761496   -1.5554694 
H     2.5001988    3.1416179   -2.2038793 
C     4.5363605    1.2053237   -3.1854309 
H     5.0424266    0.7770217   -1.1185577 
C     5.1520075   -0.1286194   -3.5583131 
H     5.2264649    2.0335357   -3.4540938 
H     3.6195299    1.3706833   -3.7918043 
C     6.4395783   -0.3748553   -3.8593878 
C     7.5018245    0.4710205   -3.9274896 
C     8.7230163   -0.0446688   -4.2487305 
C     8.8666986   -1.3824643   -4.4900964 
C     7.7900743   -2.2139658   -4.4093893 
C     6.5915714   -1.6804955   -4.0932997 
H     7.4019621    1.5325267   -3.7259370 
H     9.5881320    0.6117030   -4.3077364 
H     9.8444176   -1.7858981   -4.7414595 
H     7.8882014   -3.2791414   -4.5890928 
N     5.3617601   -2.3727157   -3.9389120 
C     4.4839950   -1.2959934   -3.5816702 
H     5.1543520   -3.3904954   -4.0627014 
H     3.4381349   -1.4185281   -3.3065265 
