48
Energy =
C     0.2133230    5.1307480   -6.6038943 
C     0.7341850    4.4983560   -5.5214944 
C     0.7811647    4.9692741   -7.8291147 
C     1.8672031    4.1742683   -7.9627261 
C     2.3914838    3.5392953   -6.8843160 
C     1.8292288    3.7008232   -5.6555898 
H     0.2673773    4.6321061   -4.5495620 
H     2.3114869    4.0516240   -8.9443461 
H     3.2645667    2.9019487   -7.0115158 
H    -0.6589516    5.7647088   -6.4885055 
C     2.4074497    2.9783891   -4.4596649 
C     1.9908952    1.4848729   -4.4164529 
H     2.1212156    3.4790137   -3.5097645 
H     3.5121925    3.0612783   -4.5218218 
C     2.6931615    0.6825051   -3.3235879 
O     0.2680650    5.6065281   -8.9638203 
H    -0.5445163    6.1844613   -8.7810476 
O     2.3352745   -0.6497203   -3.1291049 
N     0.5295828    1.3713265   -4.2748391 
H     2.3028770    0.9926520   -5.3674759 
H     0.1945249    1.9488931   -3.4695464 
H     0.0593676    1.7098664   -5.1463361 
N     3.5628703    1.3096610   -2.3589976 
C     4.9939628    0.9616858   -2.5599873 
H     3.2479617    0.9509899   -1.4280812 
C     5.5645473    1.6050884   -3.8211342 
O     5.5695226    0.9098834   -5.0240646 
O     6.0241206    2.9209147   -3.8183807 
H     5.8953301    3.3646654   -2.9216044 
C     5.2359204   -0.5703728   -2.5108596 
H     5.5695332    1.4098976   -1.7190307 
C     6.7079916   -0.8977010   -2.3971774 
H     4.8332378   -1.0518151   -3.4305657 
H     4.6790712   -1.0229872   -1.6621929 
C     7.4277603   -0.9891256   -1.2688291 
C     7.0391890   -0.8523412    0.0250939 
C     7.9823356   -0.9842993    1.0016949 
C     9.2846484   -1.2438136    0.6740598 
C     9.6520899   -1.3722315   -0.6326693 
C     8.7004493   -1.2408039   -1.5803422 
H     6.0063715   -0.6425064    0.2872954 
H     7.6975818   -0.8816127    2.0462956 
H    10.0308887   -1.3459130    1.4582191 
H    10.6815615   -1.5726190   -0.9100607 
N     8.8735874   -1.3198495   -2.9880808 
C     7.5338762   -1.0770128   -3.4432170 
H     9.7406213   -1.5069573   -3.5425119 
H     7.2320400   -1.0065880   -4.4896620 
