48
 energy: -8.969480088893 gnorm: 0.000564623658 xtb: 6.6.0 (2ccbbd7)
C            2.61352199143795       -3.37992428787847       -0.48358466083391
C            1.77891915264855       -2.61909131902290       -1.26641191338094
C            2.22597757160134       -3.75919161966816        0.80200724514317
C            0.97852808795386       -3.34135669174598        1.26614630803503
C            0.15037315715978       -2.57978015542888        0.47582599864577
C            0.53464280177768       -2.21389293290627       -0.80577407690333
H            2.09833536202192       -2.29002533346254       -2.24053874751407
H            0.68280658834128       -3.62941348197439        2.25897697780415
H           -0.80674583128319       -2.25838167868779        0.84903452764304
H            3.57757950195918       -3.68182718478146       -0.85171617102712
C           -0.34904380516864       -1.36466995471455       -1.66815369902477
C            0.03819284761231        0.11164097559661       -1.66291106207716
H           -1.39315228917202       -1.47797835209187       -1.35923997396026
H           -0.29850827354688       -1.73287599410764       -2.69766870555756
C            1.46884024910585        0.33338095807557       -2.21763542744288
O            3.03943296552282       -4.52445515666885        1.61639411115071
H            3.87658301121293       -4.73634058508142        1.14915375804322
O            1.68566096278722       -0.45098540631453       -3.42587868055499
N           -0.85433432477701        0.94213577994110       -2.56793010736529
H           -0.00153738116409        0.50594579062822       -0.63891743807278
H           -1.34743070406229        0.31458530731464       -3.22889860546979
H           -1.58928819697993        1.44043872230381       -2.02716464576211
N            2.58754693891558        0.24521658197916       -1.24450270022741
C            3.94796569600695        0.72454872093841       -1.58210214206734
H            2.28816015674103        0.71001454160434       -0.38498461130043
C            4.02317548059246        2.22853316338062       -1.39324261336483
O            4.04105739935811        2.95126944010077       -2.36591794712346
O            4.03144630797784        2.66420686593767       -0.10709116619570
H            4.03034580315215        1.91298294259422        0.52684426260515
C            4.49465375837423        0.27681654157093       -2.95298548404536
H            4.60861919688402        0.28423110488090       -0.81798833150362
C            3.69643995211720        0.71276748904102       -4.12806176287458
H            4.55484530742979       -0.81629562400141       -2.97190416703417
H            5.51782616989625        0.64896268909624       -3.06971736985515
C            2.19078688034761        0.73330502559489       -4.10553164821098
C            1.44974610418268        1.63644641636774       -3.07495638356784
C           -0.02375152581447        1.93578431453090       -3.40901356056161
C           -0.36861096834608        1.86047092392224       -4.86808034544460
C            0.48734580732360        1.44033599725262       -5.84170007540593
C            1.75402342587683        0.95435126527748       -5.52762362481268
H            2.04605321928852        2.46696122064001       -2.67801573698507
H           -0.21290204305540        3.17448769216827       -3.09274449948073
H           -1.34654400353791        2.20790648999206       -5.15384033181434
H            0.21431034099838        1.52682146858507       -6.87922943538816
N            2.92418971408519        0.90719248617198       -6.25671103467008
C            4.05702206083007        0.77166192626930       -5.43000439717185
H            2.98254587220138        1.15882815379454       -7.24349351104498
H            5.06646883852223        0.68288475579292       -5.79430520506050
