48
Energy =
C     3.7550317    7.5617155    1.9880993 
C     3.3252976    6.8315592    0.9279476 
C     5.0101654    7.3809284    2.4793523 
C     5.8278371    6.4695703    1.9050686 
C     5.4040166    5.7359584    0.8447600 
C     4.1491627    5.9162857    0.3479630 
H     2.3171687    6.9858772    0.5495137 
H     6.8264112    6.3354293    2.3072647 
H     6.0779843    5.0056214    0.4006362 
H     3.0918809    8.2895918    2.4433442 
C     3.6633908    5.0890617   -0.8192165 
C     2.7430226    3.9240878   -0.3677536 
H     4.5238990    4.7028454   -1.4165617 
H     3.1174657    5.7446733   -1.5366672 
C     2.1042515    3.2535109   -1.5843628 
O     5.4830671    8.1147620    3.5717595 
H     4.8145164    8.7816855    3.9419374 
O     1.2320137    4.0317745   -2.3429830 
N     3.4646515    2.9884672    0.5160642 
H     1.8721142    4.3447065    0.1894062 
H     4.4582692    2.8711516    0.2094347 
H     3.5022079    3.3875688    1.4842461 
N     2.1992413    1.8432592   -1.8816959 
C     3.5819077    1.3318892   -2.1057551 
H     1.6411779    1.7319359   -2.7582476 
C     4.5826574    2.3796619   -2.5946370 
O     4.2253312    3.2774588   -3.5870418 
O     5.8416484    2.5184524   -2.0116052 
H     6.0814294    1.7272734   -1.4320576 
C     3.5684048    0.1347190   -3.0830276 
H     3.9538935    0.9558413   -1.1294607 
C     2.7332559   -1.0127557   -2.5598958 
H     4.6067156   -0.2225566   -3.2609952 
H     3.1873967    0.4715681   -4.0742705 
C     3.0944438   -1.9091474   -1.6285366 
C     4.2647624   -2.0382854   -0.9521759 
C     4.3788055   -3.0478432   -0.0417922 
C     3.3334912   -3.9025741    0.1762750 
C     2.1676932   -3.7528500   -0.5149117 
C     2.0799656   -2.7470713   -1.4104972 
H     5.0944436   -1.3598047   -1.1245206 
H     5.3050286   -3.1734406    0.5138447 
H     3.4313110   -4.7041997    0.9040856 
H     1.3283291   -4.4205644   -0.3532028 
N     0.9640730   -2.4163316   -2.2249714 
C     1.4695241   -1.2779704   -2.9350778 
H     0.0293262   -2.8805732   -2.2898866 
H     0.8989779   -0.7056070   -3.6632551 
