48
Energy =
C     7.8645442    3.2626194    3.0933966 
C     6.8106241    2.8690809    2.3343816 
C     7.8589063    3.0461436    4.4359886 
C     6.7975090    2.4352059    5.0098916 
C     5.7408212    2.0394853    4.2560399 
C     5.7394303    2.2586440    2.9127306 
H     6.8328402    3.0435865    1.2607208 
H     6.8063148    2.2654896    6.0809396 
H     4.8992883    1.5455172    4.7351556 
H     8.7124622    3.7490389    2.6233578 
C     4.5711688    1.8009109    2.0688186 
C     4.6239707    0.2818781    1.7764972 
H     4.5374056    2.3692995    1.1113945 
H     3.6252460    2.0450708    2.6024278 
C     3.3501662   -0.1998332    1.0965684 
O     8.9288955    3.4388402    5.2468455 
H     9.6845061    3.8894536    4.7422474 
O     2.5214074   -1.0842171    1.7765266 
N     5.8160485   -0.0566930    0.9796904 
H     4.6655426   -0.2758724    2.7429387 
H     5.9372581    0.6168769    0.1852649 
H     6.6714144    0.0227159    1.5780773 
N     2.7822718    0.5341021    0.0067530 
C     3.3859964    0.3590429   -1.3218998 
H     1.9790281    1.1724868    0.1955157 
C     3.8516150    1.7057800   -1.8746391 
O     5.2116690    1.9436771   -2.0410938 
O     2.9564293    2.7331791   -2.1868843 
H     2.0012426    2.4848329   -1.9811110 
C     2.3725726   -0.3305667   -2.2540976 
H     4.2838384   -0.2970140   -1.2629886 
C     2.2611044   -1.8065700   -1.9380043 
H     2.6790280   -0.2018550   -3.3147470 
H     1.3729345    0.1438052   -2.1531636 
C     3.0035840   -2.7974442   -2.4578358 
C     3.9954292   -2.7496943   -3.3849886 
C     4.6112214   -3.9151949   -3.7357202 
C     4.2354391   -5.0963251   -3.1578988 
C     3.2431431   -5.1187095   -2.2233718 
C     2.6462454   -3.9536301   -1.8962748 
H     4.3084218   -1.8121487   -3.8346765 
H     5.4104804   -3.9036900   -4.4730796 
H     4.7351773   -6.0201591   -3.4383120 
H     2.9405217   -6.0447243   -1.7464123 
N     1.6194498   -3.7562765   -0.9357030 
C     1.4387511   -2.3355665   -1.0144870 
H     1.1179117   -4.4574946   -0.3436782 
H     0.7792432   -1.7620452   -0.3653507 
