48
Energy =
C     0.0178239   -2.4213073   -4.2504666 
C     0.2951117   -1.0933603   -4.2945561 
C    -0.8413317   -2.9087000   -3.3159015 
C    -1.4199131   -2.0617876   -2.4340763 
C    -1.1476290   -0.7329805   -2.4765427 
C    -0.2869882   -0.2402585   -3.4084842 
H     1.0003016   -0.7150003   -5.0325229 
H    -2.1021476   -2.4617248   -1.6923937 
H    -1.6193736   -0.0674180   -1.7585673 
H     0.4924798   -3.0930749   -4.9579372 
C     0.0396830    1.2385059   -3.4374771 
C     1.0247570    1.6332779   -2.3097219 
H    -0.9075300    1.8112710   -3.3275418 
H     0.4669602    1.5348265   -4.4224820 
C     2.4055308    1.0096023   -2.4593118 
O    -1.1408424   -4.2730746   -3.2376879 
H    -0.6843347   -4.8360528   -3.9470756 
O     2.7849122    0.4071553   -3.6571811 
N     1.1326600    3.0970201   -2.2339756 
H     0.6265379    1.2581558   -1.3388326 
H     1.5343118    3.4679740   -3.1295622 
H     0.1841850    3.5221987   -2.1123141 
N     3.2165539    0.8377183   -1.2829424 
C     4.6710649    1.0452850   -1.5078013 
H     3.0145289   -0.1096363   -0.8965429 
C     4.9786596    2.3273689   -2.2973625 
O     5.8917737    2.3047633   -3.3479328 
O     4.4198757    3.5544959   -1.9334823 
H     3.7394065    3.4432922   -1.1932716 
C     5.3628732   -0.2170224   -2.1022532 
H     5.1331332    1.2299423   -0.5134677 
C     5.3080691   -1.4077251   -1.1680049 
H     6.4355275    0.0103747   -2.2935060 
H     4.9413082   -0.4717777   -3.0958409 
C     4.4495321   -2.4420223   -1.2114952 
C     3.4389501   -2.7052933   -2.0803757 
C     2.6931604   -3.8306726   -1.8861525 
C     2.9637068   -4.6672371   -0.8400029 
C     3.9824748   -4.3837819    0.0200574 
C     4.7069610   -3.2650256   -0.1929910 
H     3.2139769   -2.0402494   -2.9075414 
H     1.8757415   -4.0628193   -2.5634043 
H     2.3604192   -5.5600435   -0.6917210 
H     4.2070260   -5.0348331    0.8580792 
N     5.7894166   -2.7826048    0.5904526 
C     6.1165649   -1.5738211   -0.1066344 
H     6.2249467   -3.1994976    1.4448686 
H     6.9043079   -0.8852702    0.1922467 
