48
Energy =
C    -0.3503498    5.5170480   -0.2413239 
C    -0.2290072    4.9523357   -1.4707744 
C    -1.3385019    5.1144382    0.6005739 
C    -2.1997850    4.1492955    0.2070464 
C    -2.0819138    3.5797404   -1.0190546 
C    -1.0934080    3.9766826   -1.8672476 
H     0.5672237    5.2838440   -2.1368775 
H    -2.9844450    3.8378047    0.8881641 
H    -2.7828950    2.8033349   -1.3139803 
H     0.3450634    6.2900867    0.0690438 
C    -0.9525809    3.3292063   -3.2320974 
C     0.0579223    2.1512555   -3.2615261 
H    -0.6432277    4.0955338   -3.9793736 
H    -1.9432426    2.9661877   -3.5843326 
C     1.4970123    2.5945967   -2.9953540 
O    -1.4908084    5.6745265    1.8725143 
H    -0.8048849    6.3869811    2.0978683 
O     1.8981599    3.8362983   -3.4702004 
N    -0.3789651    1.0695520   -2.3607301 
H     0.0753481    1.7510141   -4.3002825 
H    -0.3499775    1.3985173   -1.3663569 
H    -1.3674320    0.8034639   -2.5788520 
N     2.4553251    1.6789646   -2.4215884 
C     3.9225516    1.9192599   -2.3637827 
H     2.0945194    0.7367578   -2.1549930 
C     4.4367739    3.2258243   -2.9814733 
O     4.9102663    4.2283255   -2.1396031 
O     4.5616936    3.3976874   -4.3619162 
H     4.0008583    2.7204314   -4.8556092 
C     4.6700559    0.6966776   -2.9553092 
H     4.2002769    2.0048515   -1.2896364 
C     4.5490838   -0.5303883   -2.0760940 
H     5.7535672    0.9319998   -3.0674699 
H     4.2955000    0.4820233   -3.9783568 
C     3.7158492   -1.5723584   -2.2392873 
C     2.7926215   -1.8113526   -3.2073498 
C     2.0593435   -2.9589205   -3.1352036 
C     2.2562032   -3.8413101   -2.1095172 
C     3.1868444   -3.5806401   -1.1482006 
C     3.9001525   -2.4387499   -1.2411289 
H     2.6272084   -1.1105265   -4.0196015 
H     1.3129641   -3.1717080   -3.8965796 
H     1.6672102   -4.7534822   -2.0590919 
H     3.3535088   -4.2685788   -0.3264282 
N     4.9020773   -1.9784560   -0.3453821 
C     5.2673805   -0.7351603   -0.9578591 
H     5.2698354   -2.4264848    0.5250353 
H     6.0197750   -0.0543416   -0.5658732 
