48
Energy =
C     7.6340588    2.4262544   -0.3551975 
C     6.5986620    2.6943606    0.4853320 
C     8.1570456    1.1754175   -0.4133128 
C     7.6547698    0.2055116    0.3789571 
C     6.6127085    0.4647022    1.2115909 
C     6.0562634    1.7047239    1.2491492 
H     6.2000506    3.7073285    0.5466887 
H     8.1003385   -0.7815332    0.3291141 
H     6.2221638   -0.3343328    1.8322624 
H     8.0498218    3.2119768   -0.9766664 
C     4.8908059    2.0163975    2.1728301 
C     3.6349320    1.0926474    2.0663047 
H     4.5391985    3.0560718    1.9862183 
H     5.2831160    2.0162014    3.2151095 
C     3.4402976    0.4035952    0.7136681 
O     9.2058972    0.8582278   -1.2799946 
H     9.5330820    1.6429280   -1.8317928 
O     4.0077996   -0.8479865    0.4802136 
N     3.5947005    0.1240622    3.1749983 
H     2.7426304    1.7468062    2.1895176 
H     4.4441411   -0.4829584    3.1639481 
H     3.5755325    0.6294977    4.0918742 
N     2.8063260    1.0804754   -0.3941132 
C     3.7896939    1.4215444   -1.4566122 
H     2.2710347    1.9079373   -0.0416770 
C     3.6325725    2.8517123   -1.9573380 
O     3.3554039    3.1123004   -3.2901086 
O     3.8093312    3.9309302   -1.0969106 
H     3.8660396    3.6414481   -0.1323858 
C     3.6543453    0.3619213   -2.5810000 
H     4.8391604    1.4171082   -1.0748194 
C     4.9238484    0.2398107   -3.3988333 
H     2.7683798    0.5840855   -3.2157243 
H     3.4471166   -0.6346774   -2.1273201 
C     5.1389333    0.6539022   -4.6600065 
C     4.2969147    1.2479360   -5.5452259 
C     4.7754332    1.5715241   -6.7806921 
C     6.0726688    1.2965351   -7.1134648 
C     6.8997801    0.6960125   -6.2120488 
C     6.4037523    0.3865751   -4.9957633 
H     3.2664365    1.4731418   -5.2894983 
H     4.1209956    2.0553116   -7.5021211 
H     6.4464780    1.5600944   -8.0998432 
H     7.9320954    0.4713137   -6.4588330 
N     7.0958301   -0.2355074   -3.9232425 
C     6.0624637   -0.3049836   -2.9340815 
H     8.0835507   -0.5783035   -3.8679080 
H     6.1885282   -0.7328153   -1.9406478 
