48
Energy =
C     2.3986913    7.3573804   -3.7430636 
C     2.4666929    6.1410203   -3.1440849 
C     1.4107248    8.2297804   -3.4091693 
C     0.4964401    7.8790172   -2.4765709 
C     0.5579991    6.6642826   -1.8744184 
C     1.5454248    5.7872588   -2.2039154 
H     3.2676383    5.4544945   -3.4237582 
H    -0.2862087    8.5846676   -2.2197608 
H    -0.1889808    6.4020936   -1.1294853 
H     3.1365798    7.6297613   -4.4907039 
C     1.6092974    4.4249418   -1.5500471 
C     0.9469608    3.3284962   -2.4255232 
H     1.1333273    4.4456548   -0.5442027 
H     2.6778614    4.1772315   -1.3519934 
C     1.4181210    1.9441956   -2.0116220 
O     1.3116673    9.4895142   -4.0079963 
H     2.0342594    9.6766955   -4.6948333 
O     1.3589471    1.5668191   -0.6726841 
N    -0.5220277    3.4229220   -2.3494332 
H     1.2642087    3.4483032   -3.4896178 
H    -0.8398865    3.3430058   -1.3529327 
H    -0.8430196    4.3494342   -2.7172620 
N     2.1253929    1.1038382   -2.9385423 
C     3.5905397    1.2541139   -2.7647276 
H     1.8484871    0.1305827   -2.6740771 
C     4.0847143    2.6232608   -3.2229050 
O     4.9598541    3.3325068   -2.4136841 
O     3.6154182    3.2421001   -4.3807275 
H     3.0820847    2.5941912   -4.9472838 
C     4.3400687    0.0950479   -3.4668708 
H     3.8564621    1.1921744   -1.6798300 
C     4.0721675    0.0149992   -4.9551266 
H     4.0464202   -0.8693187   -2.9965768 
H     5.4331385    0.1921304   -3.2845698 
C     4.7916342    0.5785549   -5.9396634 
C     5.9053305    1.3527011   -5.8732104 
C     6.4433574    1.8168181   -7.0374987 
C     5.8666484    1.5055084   -8.2375711 
C     4.7454026    0.7313927   -8.2798674 
C     4.2324533    0.2842596   -7.1143474 
H     6.3530392    1.6199172   -4.9208565 
H     7.3297492    2.4453400   -7.0092251 
H     6.2990776    1.8830098   -9.1603132 
H     4.2705936    0.4815238   -9.2221243 
N     3.0713144   -0.5139703   -6.9381468 
C     3.0369173   -0.6381510   -5.5107582 
H     2.4210525   -0.9040415   -7.6572840 
H     2.2739669   -1.1816125   -4.9594585 
