48
 energy: -8.955076869956 gnorm: 0.000640490226 xtb: 6.6.0 (2ccbbd7)
C           -1.30115309610747       -3.42611360440588       -4.53760472188624
C           -0.04798929492592       -3.32074041688246       -3.98188839840228
C           -2.01938227771066       -2.28421569527653       -4.89355242278762
C           -1.43570691787309       -1.03916236556378       -4.66352927630615
C           -0.18225547564239       -0.94411117229021       -4.11072552084284
C            0.53393727415000       -2.08000118847360       -3.76386091093755
H            0.49680521552832       -4.20952988476817       -3.71394604874333
H           -1.99439781541927       -0.15699981984277       -4.92086237395536
H            0.25128722826177        0.02262474385935       -3.91819548245229
H           -1.74063741221399       -4.39300579372564       -4.70536073683521
C            1.90293231571290       -1.96960581455675       -3.17856354337815
C            1.94061587367125       -1.50721674657472       -1.71626154876724
H            2.56442116400417       -1.23373606317226       -3.94039147902311
H            2.41610546687579       -2.92986306590316       -3.27333651773634
C            1.42718171308380       -0.09648937142498       -1.56707284226954
O           -3.27645553113009       -2.35512895904735       -5.46151184140743
H           -3.56086528109281       -3.29112912355543       -5.53812309171337
O            0.22351307747195        0.03929453736650       -1.47778633138617
N            1.13953872531473       -2.36883544667966       -0.85883618950733
H            2.96648249344851       -1.54871784965818       -1.32660491180052
H            0.16790001956153       -2.08421550229872       -0.95343924480978
H            1.22238446645025       -3.34098054018423       -1.13149226761005
N            2.25498549416954        1.00880215646520       -1.55426330880783
C            3.72816399160118        1.05986819558020       -1.50858037729221
H            1.82841290432327        1.90443145590277       -1.32770545220492
C            4.14396764803688        2.51251981566276       -1.65582946081961
O            4.85015112101292        2.97670560934419       -0.78688252298442
O            3.72181244346827        3.18709817446157       -2.75008731015620
H            3.08065222755787        2.63874406658745       -3.47780096077353
C            4.47111037003124        0.24049439240756       -2.57255031464483
H            4.03008563705603        0.73225965378182       -0.50275130405831
C            3.96253113718982        0.48426799044075       -3.94197756463360
H            4.43496790029660       -0.82936226663675       -2.35447006870919
H            5.53407280878035        0.50457299294326       -2.54184260340099
C            3.26889386835196       -0.58271658986239       -4.74831256628397
C            4.12232997812576       -1.59691871318281       -5.44526943033277
C            3.75440439573806       -2.09664117915202       -6.64657633800436
C            2.65650117442801       -1.57166861123359       -7.36550126730904
C            2.00543925014180       -0.42747144264597       -6.93330789120408
C            2.36272524784035        0.13959297202065       -5.72066994759564
H            4.99449782692785       -1.97238771268692       -4.93924501981170
H            4.33059941818206       -2.89241380346162       -7.08866862464067
H            2.38896984052836       -2.00788208568093       -8.31310148401860
H            1.30082037992109        0.07961212448000       -7.56906133744119
N            2.30083983529659        1.46454099671327       -5.35794923653160
C            3.28452121955223        1.75206953349614       -4.31526141282532
H            2.16277328837304        2.21366962324450       -6.03780626362200
H            2.54774329789264        1.99703470299536       -3.34821755970233
