48
Energy =
C    -1.8450179    1.6701792    0.1222101 
C    -0.6186879    2.2479865    0.1775505 
C    -2.4553950    1.2519778    1.2629578 
C    -1.8313706    1.4117774    2.4521721 
C    -0.6042008    1.9880586    2.5133633 
C     0.0076532    2.4168459    1.3754812 
H    -0.1413930    2.5694955   -0.7436130 
H    -2.3261360    1.0682959    3.3543379 
H    -0.1153868    2.0997668    3.4778175 
H    -2.3348397    1.5407820   -0.8367922 
C     1.3882116    3.0350490    1.4427188 
C     2.4955078    1.9585048    1.4663657 
H     1.4622829    3.6602204    2.3600846 
H     1.5496957    3.7297031    0.5879453 
C     2.5222748    1.1431548    0.1867537 
O    -3.7207423    0.6565785    1.2416887 
H    -4.1163013    0.5579188    0.3130394 
O     2.1624274   -0.1993324    0.2051397 
N     3.8005250    2.5942580    1.7174622 
H     2.2840251    1.2261826    2.2831912 
H     3.9677693    3.3647042    1.0246720 
H     3.8025624    3.0298725    2.6700740 
N     2.9251152    1.7356478   -1.0504480 
C     4.3008846    1.4590662   -1.5002740 
H     2.2687953    2.3630033   -1.5663296 
C     4.8973972    2.6388949   -2.2575891 
O     4.0703306    3.6062009   -2.8167461 
O     6.2748795    2.7500758   -2.4518108 
H     6.7883986    2.0068800   -2.0014882 
C     4.3182231    0.1635140   -2.3412034 
H     4.9626061    1.3164709   -0.6140143 
C     3.3065744    0.1895583   -3.4682468 
H     4.0821560   -0.6943763   -1.6710374 
H     5.3359852   -0.0295814   -2.7436974 
C     3.4821202    0.6699295   -4.7100075 
C     4.5819510    1.2188273   -5.2874494 
C     4.4931943    1.6398228   -6.5817374 
C     3.3211890    1.5056732   -7.2732400 
C     2.2296048    0.9514852   -6.6736114 
C     2.3415737    0.5439966   -5.3918983 
H     5.5124219    1.3356322   -4.7401382 
H     5.3577952    2.0911834   -7.0626852 
H     3.2579451    1.8472565   -8.3033342 
H     1.2912826    0.8415809   -7.2064680 
N     1.3291652   -0.0466613   -4.5886671 
C     2.0363619   -0.2384557   -3.3557226 
H     0.3378442   -0.2750064   -4.8312306 
H     1.5994169   -0.6521597   -2.4471527 
