48
 energy: -9.223914919203 gnorm: 0.000786507922 xtb: 6.6.0 (2ccbbd7)
C            3.77200985811464       -1.31259026282720       -6.32595029963801
C            2.95264456349772       -1.72550185570929       -5.27140042649301
C            3.94579257849804        0.05937772684366       -6.63464688058270
C            3.39207480902132        0.99789761289475       -5.80788716983003
C            2.76564927993286        0.60439188480662       -4.52400356400974
C            2.37549165561933       -0.83767750579600       -4.41720713104973
H            2.73557040930080       -2.77364088902308       -5.15775508127885
H            3.47848494336285        2.03524684544837       -6.07356251226417
H            2.66358587785567        1.32447075808026       -3.52694264527052
H            4.21805374852085       -2.04523416300234       -6.97325426341991
C            1.36158061795844       -1.29202077570777       -3.41003160078355
C            1.79842151494640       -1.19856293421291       -1.93709366912223
H            1.08011595084999       -2.32543631380234       -3.63499725396089
H            0.44372971454038       -0.70848982297473       -3.53474629682951
C            1.57171344462456        0.19594732628895       -1.40455754399727
O            4.64556387865071        0.46224555474531       -7.75689841881457
H            4.96381347334589       -0.32134915834840       -8.25456576697243
O            0.41970932034901        0.49555065282671       -1.16465393468972
N            1.04250322764200       -2.10914987420851       -1.08820314070078
H            2.85527880239796       -1.47669549515662       -1.83525860813667
H            0.13387639882737       -1.68724967936877       -0.91800901368512
H            0.90487129011127       -3.01031125749646       -1.52943857750478
N            2.60186138137462        1.08901758907494       -1.20329011744648
C            4.02486582636983        0.83857522725272       -1.45591162673527
H            2.40483938238718        1.93850856751598       -0.67883550136863
C            4.81624776742095        2.07459359133407       -1.07539893382298
O            5.82952262688807        1.92580865086453       -0.42757779505653
O            4.33180045422409        3.25524644923964       -1.52647761006038
H            3.49563859650882        3.12054289144724       -2.03102300602354
C            4.29520005046184        0.44618746592730       -2.91763706834745
H            4.35058502830122        0.03484251505018       -0.78093535294483
C            5.67852144609998        0.75968757244905       -3.37684380955610
H            3.46999132431759        1.03347250836159       -3.63123471497614
H            4.14703442945314       -0.62880883507585       -3.05649848534841
C            6.84689249967265        0.00363655242517       -3.07012815255273
C            7.05220335727216       -1.17746846997324       -2.33749350819630
C            8.32970792139415       -1.64148097011356       -2.18956264784200
C            9.42080335534295       -0.95864867279475       -2.75166300249743
C            9.24394093514492        0.19500836869866       -3.46530291845630
C            7.94312714400371        0.68687922566568       -3.62967964347044
H            6.21461887299981       -1.68764727221109       -1.89610240614836
H            8.50572554614336       -2.54203464090282       -1.62502023875591
H           10.41531177267683       -1.34847722879253       -2.61030888009511
H           10.07449153158828        0.72992286041356       -3.88967265417193
N            7.45020967204382        1.81689993647447       -4.25779317981392
C            6.08960340945167        1.86293727366948       -4.08341645236200
H            8.02678231269048        2.54309577797480       -4.68710479433506
H            5.45283218107855        2.66473934387166       -4.42106895452498
