48
Energy =
C     0.4702357    5.3097260   -1.7554462 
C     0.0406210    4.0291240   -1.8698317 
C     0.4817129    5.9186968   -0.5418620 
C     0.0695066    5.2361982    0.5523381 
C    -0.3343214    3.9439249    0.4466575 
C    -0.3413259    3.3275815   -0.7664627 
H     0.0476527    3.5492109   -2.8460828 
H     0.0852323    5.7311528    1.5175410 
H    -0.6335804    3.4030389    1.3403197 
H     0.8250616    5.8391093   -2.6324083 
C    -0.6961698    1.8562709   -0.8892517 
C     0.5424535    0.9178537   -0.8386950 
H    -1.2230813    1.6905133   -1.8555882 
H    -1.4208792    1.5662309   -0.0981735 
C     1.6615118    1.3905394   -1.7590417 
O     0.9119302    7.2414646   -0.3889103 
H     1.2465147    7.6835102   -1.2385975 
O     1.3776191    1.3447334   -3.1196440 
N     0.9928816    0.7191679    0.5501910 
H     0.2424468   -0.0720717   -1.2569564 
H     1.1556819    1.6472314    1.0054919 
H     0.2372780    0.2409462    1.0942263 
N     2.6610102    2.3109403   -1.2578838 
C     3.8137316    2.5870573   -2.1545402 
H     3.0381628    1.8796712   -0.3834097 
C     3.4285589    3.3545651   -3.4105317 
O     4.3932262    4.1753403   -4.0042604 
O     2.2605911    3.0964692   -4.1008975 
H     1.8200600    2.2227367   -3.6094927 
C     4.5960613    1.3087281   -2.5150062 
H     4.5029086    3.2440647   -1.5821330 
C     5.8182062    1.4502567   -3.4323320 
H     3.8935268    0.6077375   -3.0189278 
H     4.9220718    0.8187051   -1.5722584 
C     6.3441331    2.5130848   -4.1092533 
C     6.0129165    3.8580184   -4.1135251 
C     6.7768786    4.6985465   -4.8973146 
C     7.7733313    4.2100783   -5.6864732 
C     8.0632034    2.8843062   -5.6796437 
C     7.3439568    2.0681053   -4.8837291 
H     5.2366088    4.3887703   -3.2590138 
H     6.5705087    5.7650624   -4.8836252 
H     8.3487906    4.8872840   -6.3123435 
H     8.8629310    2.4855622   -6.2947694 
N     7.5385136    0.6723235   -4.7324820 
C     6.5167598    0.3550789   -3.7870875 
H     8.2437630    0.0473788   -5.1867486 
H     6.3000772   -0.6550817   -3.4454684 
