48
Energy =
C    -2.6203277    4.2213945   -1.8537693 
C    -2.1012553    2.9785373   -2.0193915 
C    -1.8082836    5.3117425   -1.8880631 
C    -0.4806803    5.1494497   -2.0864267 
C     0.0432559    3.9097119   -2.2544250 
C    -0.7646493    2.8139952   -2.2221097 
H    -2.7628536    2.1174819   -1.9843713 
H     0.1581498    6.0250444   -2.1065518 
H     1.1127334    3.8046871   -2.4111893 
H    -3.6861332    4.3410024   -1.6926317 
C    -0.1810561    1.4258407   -2.3919421 
C     0.3331008    0.8136153   -1.0638438 
H     0.6481545    1.4653796   -3.1320883 
H    -0.9408373    0.7483883   -2.8398845 
C     1.4891436    1.6070905   -0.4668495 
O    -2.3122487    6.6069930   -1.7251219 
H    -3.3125449    6.6430943   -1.5626700 
O     1.3648787    2.2527432    0.7582240 
N    -0.7715718    0.6286384   -0.1078851 
H     0.7568687   -0.1895735   -1.2817315 
H    -1.0900044    1.5615796    0.2502826 
H    -1.5884431    0.1728812   -0.5754986 
N     2.7687163    1.6160717   -1.1116313 
C     3.8682680    0.9119514   -0.4217713 
H     2.8540434    1.9928777   -2.0823447 
C     5.0245341    1.8531916   -0.0906870 
O     6.3122286    1.3415525    0.0221557 
O     4.8228813    3.1967666    0.2196241 
H     3.8391562    3.4281768    0.2605399 
C     4.3057084   -0.3165030   -1.2604715 
H     3.5396697    0.5485702    0.5819519 
C     4.7055922    0.0388990   -2.6822470 
H     3.4836192   -1.0611442   -1.2661801 
H     5.1640244   -0.8233046   -0.7626212 
C     3.9473879   -0.0679322   -3.7883096 
C     2.6799259   -0.5338370   -3.9385583 
C     2.1262296   -0.5227799   -5.1848239 
C     2.8394328   -0.0545332   -6.2527954 
C     4.1115950    0.4031474   -6.0811351 
C     4.6371680    0.3815718   -4.8385837 
H     2.1108919   -0.9115692   -3.0985257 
H     1.1131009   -0.8898147   -5.3310878 
H     2.3920007   -0.0485188   -7.2437712 
H     4.6921943    0.7775241   -6.9176824 
N     5.9312228    0.8145196   -4.4498102 
C     5.8948076    0.5599704   -3.0389614 
H     6.7045801    1.2084494   -5.0342125 
H     6.7176907    0.7725443   -2.3577194 
