48
Energy =
C     0.3033271    5.9216634   -0.4489127 
C     1.5348731    5.4853605   -0.0822918 
C    -0.1257562    5.7600035   -1.7285450 
C     0.6797639    5.1594194   -2.6328632 
C     1.9130167    4.7227471   -2.2725609 
C     2.3538224    4.8883730   -0.9936768 
H     1.8603177    5.6169886    0.9466104 
H     0.3224413    5.0269157   -3.6492776 
H     2.5330554    4.2281114   -3.0141832 
H    -0.3388440    6.3983180    0.2843949 
C     3.7212799    4.3898886   -0.5682903 
C     3.6614658    2.9660446    0.0412250 
H     4.1380553    5.0937669    0.1849534 
H     4.4424752    4.4254232   -1.4204801 
C     3.3528680    1.8966486   -1.0043521 
O    -1.3867751    6.1999731   -2.1390641 
H    -1.9367670    6.6309966   -1.4039613 
O     2.0555705    1.7801672   -1.4938365 
N     4.9115466    2.6813470    0.7678055 
H     2.8186143    2.9126331    0.7693531 
H     5.7382088    2.8463148    0.1424987 
H     5.0078715    3.3331012    1.5822752 
N     4.3456593    0.9468399   -1.4216672 
C     4.9669235    1.1113675   -2.7490725 
H     4.6021724    0.1697516   -0.7747517 
C     5.4652758    2.5333457   -2.9612818 
O     4.7007756    3.4436690   -3.6770449 
O     6.6099102    3.0055380   -2.3254527 
H     7.1214632    2.2626538   -1.8703197 
C     3.9908891    0.6608992   -3.8543959 
H     5.8699434    0.4644666   -2.8040080 
C     3.6492315   -0.8057606   -3.7270040 
H     4.4366691    0.8551299   -4.8543519 
H     3.0628833    1.2729123   -3.8102513 
C     4.3850363   -1.8417682   -4.1574028 
C     5.5673640   -1.8517125   -4.8249955 
C     6.1199518   -3.0570058   -5.1451977 
C     5.4910705   -4.2201468   -4.7953804 
C     4.3056133   -4.1849441   -4.1225208 
C     3.7782770   -2.9802899   -3.8189783 
H     6.0681251   -0.9286536   -5.1019321 
H     7.0652462   -3.0928730   -5.6811961 
H     5.9380904   -5.1766853   -5.0536745 
H     3.7951683   -5.0976660   -3.8348949 
N     2.5700548   -2.7228228   -3.1176453 
C     2.5655855   -1.2891216   -3.0952007 
H     1.8737511   -3.3944249   -2.7216984 
H     1.8009025   -0.6827077   -2.6140265 
