48
 energy: -9.062988660042 gnorm: 0.000679500807 xtb: 6.6.0 (2ccbbd7)
C            0.67501270607728       -0.33713968271852        2.42972221166374
C            0.59330106898713       -0.58490196498460        1.08031177712278
C            1.22766981784810       -1.28540496270893        3.29130125777778
C            1.69394566577223       -2.48161655239365        2.74583105232905
C            1.60857027418809       -2.72100253773487        1.39490624227196
C            1.05109197358647       -1.77938280955801        0.54258582836192
H            0.19242288308370        0.16219027604124        0.41591349200503
H            2.12372946655975       -3.21031549924617        3.40959091794965
H            1.97858722937310       -3.64594500142600        0.98697123061731
H            0.31964241504355        0.59427849765948        2.83285931036395
C            0.99475136093641       -2.01220176959234       -0.93529179310360
C            2.11385587472956       -1.28715637085392       -1.69138843699944
H            0.02477304267656       -1.66870195795749       -1.31074091456978
H            1.03887584109728       -3.08631618282145       -1.14083458935701
C            1.99811623928570        0.20884764259255       -1.47259670965356
O            1.32557112676281       -1.06994911283170        4.65295445481218
H            0.95831190013319       -0.18854971823419        4.88066634712292
O            0.99515559236915        0.78161703720155       -1.85849901402238
N            3.43749376206082       -1.75465865168165       -1.30046313245239
H            2.00315659200709       -1.46924499609518       -2.77209858012017
H            3.64166107689403       -1.39967942283804       -0.37176455650428
H            3.46261837455354       -2.76512977131033       -1.25789265912597
N            3.03944117902760        0.88495548214481       -0.78704384696330
C            4.11791244960762        1.57129155520589       -1.54235520176216
H            2.72770434664453        1.58359752269310       -0.10865749590006
C            3.72868099172850        3.00048147324597       -1.79192017885435
O            4.69149503400328        3.96598121286928       -1.74893073699444
O            2.41028396174005        3.27925042855036       -2.06752709615382
H            1.86866633617216        2.44808126849515       -2.02185144928616
C            4.47608393145488        0.84409991213152       -2.85272505400580
H            5.00385307894834        1.56330038492628       -0.89046080525317
C            5.92737203058238        0.86441726900694       -3.21718637696968
H            3.88068361006853        1.25895739666025       -3.67212944262632
H            4.16929717960826       -0.20211110871988       -2.76488401570779
C            6.87573055709506        1.91752510787284       -3.04152281281843
C            6.79468378697714        3.20166997408121       -2.48980947494069
C            7.90793087783878        3.98647852271107       -2.45327101615886
C            9.13455671705666        3.52534151302665       -2.95857587912801
C            9.24628337586963        2.27585205882372       -3.50444031439349
C            8.10885498466030        1.45882726545658       -3.54845308173113
H            5.70619268589900        3.60057833701033       -2.08423709853438
H            7.84180127427191        4.97662357815189       -2.03409883098440
H            9.99800966375303        4.16833361543118       -2.91676661097487
H           10.17953882263163        1.91234663199295       -3.89552295299371
N            7.91118165570599        0.17475232220217       -4.02123600485160
C            6.59798275533222       -0.17128009491880       -3.82101333397196
H            8.63341241513595       -0.40510521318403       -4.45237815516224
H            6.16297537996673       -1.11731893886465       -4.10008565328317
