48
Energy =
C     1.8142790    0.8262319   -5.1555340 
C     1.3753284    0.5433041   -3.9027312 
C     2.2825837   -0.1665926   -5.9562805 
C     2.2932286   -1.4410347   -5.5040182 
C     1.8531625   -1.7310348   -4.2529877 
C     1.3905914   -0.7387061   -3.4446827 
H     1.0421789    1.3567002   -3.2570507 
H     2.6697973   -2.2236946   -6.1534604 
H     1.8856662   -2.7589777   -3.9008733 
H     1.8181788    1.8543709   -5.5028829 
C     0.9704463   -1.0473758   -2.0253676 
C     2.1699539   -0.9757267   -1.0523276 
H     0.5147893   -2.0612554   -1.9874510 
H     0.1752736   -0.3403858   -1.6939207 
C     2.7436798    0.4315436   -0.9579585 
O     2.7754096    0.0975560   -7.2379613 
H     2.7035457    1.0719319   -7.5128118 
O     1.8860944    1.5086559   -0.7607378 
N     1.7661215   -1.4632054    0.2755276 
H     2.9850097   -1.6311036   -1.4353136 
H     0.9908624   -0.8619269    0.6484870 
H     1.3988792   -2.4408599    0.2015128 
N     4.1393789    0.6158687   -0.6950871 
C     5.0068487    1.0598535   -1.8013758 
H     4.4900204    0.4256858    0.2695899 
C     4.5375663    2.3883496   -2.4040111 
O     3.9663379    2.4269349   -3.6721646 
O     4.6805775    3.5854559   -1.7049364 
H     4.9497997    3.4200518   -0.7462648 
C     5.1483516   -0.0810097   -2.8352448 
H     6.0155337    1.2657575   -1.3798610 
C     6.2582829    0.1829913   -3.8290485 
H     4.1891969   -0.2176050   -3.3784620 
H     5.3570091   -1.0382410   -2.3099343 
C     7.5741116    0.0221195   -3.6210330 
C     8.2328021   -0.4163753   -2.5177061 
C     9.5942397   -0.4870469   -2.5615751 
C    10.2687222   -0.1227876   -3.6943209 
C     9.5853534    0.3140370   -4.7904250 
C     8.2389263    0.3743404   -4.7222293 
H     7.6978449   -0.7057478   -1.6180569 
H    10.1459542   -0.8341105   -1.6913174 
H    11.3539312   -0.1807610   -3.7211396 
H    10.1044007    0.6080587   -5.6963007 
N     7.3451225    0.7996031   -5.7407104 
C     6.0811786    0.6484383   -5.0790427 
H     7.5508550    1.1302364   -6.7112082 
H     5.1171216    0.8913618   -5.5260245 
