48
Energy =
C     3.4532997    4.4137418    4.4391795 
C     3.4434312    3.2891843    3.6802411 
C     2.2879243    4.9255187    4.9178704 
C     1.1195026    4.3066783    4.6328834 
C     1.1034421    3.1817170    3.8737320 
C     2.2678777    2.6644774    3.3946824 
H     4.3839768    2.8918925    3.3036830 
H     0.1973619    4.7253061    5.0203894 
H     0.1537399    2.7018886    3.6527768 
H     4.3961121    4.9019030    4.6607225 
C     2.2591977    1.4213730    2.5332417 
C     2.4306730    1.7482769    1.0313456 
H     1.3263139    0.8330489    2.6888049 
H     3.0916519    0.7587461    2.8653101 
C     2.6548290    0.4713068    0.2304134 
O     2.2620832    6.0841764    5.7015564 
H     3.1781956    6.4844512    5.8726207 
O     1.7208854   -0.5552702    0.3115885 
N     1.2609190    2.4777181    0.5149443 
H     3.3352334    2.3862753    0.9048327 
H     0.3906989    1.9185962    0.6886215 
H     1.1571716    3.3897499    1.0188507 
N     3.6805889    0.3830369   -0.7725648 
C     4.9892910    0.0131455   -0.1860087 
H     3.7070984    1.2873368   -1.2953978 
C     5.6822811    1.1827682    0.5092611 
O     5.8753542    1.1347669    1.8828191 
O     6.0715594    2.3324503   -0.1776040 
H     5.9264884    2.2532183   -1.1720052 
C     5.8764064   -0.5989540   -1.2883505 
H     4.8463505   -0.7715206    0.5972346 
C     5.3215291   -1.9258439   -1.7585190 
H     6.9122612   -0.7503620   -0.9099114 
H     5.9505905    0.0940974   -2.1544113 
C     5.4896660   -3.1208581   -1.1709732 
C     6.1969059   -3.4531166   -0.0606229 
C     6.1995890   -4.7568994    0.3395576 
C     5.5011468   -5.6978007   -0.3659322 
C     4.7947925   -5.3397611   -1.4759508 
C     4.8100941   -4.0440447   -1.8532112 
H     6.7461628   -2.7071651    0.5061149 
H     6.7565107   -5.0476422    1.2269302 
H     5.5048736   -6.7343764   -0.0376688 
H     4.2293970   -6.0714897   -2.0431971 
N     4.1345718   -3.4637617   -2.9601138 
C     4.5105449   -2.0868241   -2.8189317 
H     3.5350039   -3.9188351   -3.6864714 
H     4.1546286   -1.2827888   -3.4589502 
