48
Energy =
C     1.5387153    4.8202735    0.0201956 
C     1.1803296    4.0244155   -1.0179641 
C     0.6882962    5.0033015    1.0644668 
C    -0.5161009    4.3871035    1.0607233 
C    -0.8762731    3.5854636    0.0259815 
C    -0.0256997    3.3945794   -1.0191441 
H     1.8654971    3.8957657   -1.8496743 
H    -1.1862260    4.5415706    1.8991369 
H    -1.8461229    3.0964986    0.0433038 
H     2.5081094    5.3079935    0.0123589 
C    -0.4044472    2.4789686   -2.1655408 
C    -0.0377433    0.9933989   -1.9109807 
H     0.0971323    2.8221080   -3.0983389 
H    -1.4937602    2.5685901   -2.3724095 
C     1.4436800    0.7975098   -1.5982402 
O     1.0239361    5.8193865    2.1502255 
H     1.9486861    6.2319928    2.0886065 
O     1.8435419    0.2746570   -0.3702250 
N    -0.9072742    0.4103649   -0.8747455 
H    -0.2116313    0.4266936   -2.8531275 
H    -0.6464013    0.7948043    0.0651493 
H    -1.9091055    0.6498679   -1.0552735 
N     2.4368397    1.0974140   -2.5961682 
C     3.8065785    1.4100868   -2.1376511 
H     2.1668374    1.1216276   -3.6044977 
C     4.2491661    2.7769114   -2.6342584 
O     4.5186782    3.7769822   -1.7079730 
O     4.3560560    3.0798642   -3.9914367 
H     4.1347107    2.2866266   -4.5726908 
C     4.7702198    0.2946791   -2.5950372 
H     3.8550044    1.4901452   -1.0235828 
C     4.5037222   -0.9977728   -1.8542979 
H     5.8220644    0.6057287   -2.4010478 
H     4.6878187    0.1294358   -3.6900126 
C     3.6627939   -1.9810980   -2.2150663 
C     2.8820119   -2.1011303   -3.3200868 
C     2.0992745   -3.2112075   -3.4440848 
C     2.1076647   -4.1738522   -2.4730163 
C     2.8995895   -4.0325175   -1.3723631 
C     3.6665541   -2.9265201   -1.2735401 
H     2.8708537   -1.3366071   -4.0891950 
H     1.4630957   -3.3300862   -4.3175336 
H     1.4779399   -5.0538640   -2.5763444 
H     2.9144048   -4.7836827   -0.5901853 
N     4.5481245   -2.5862292   -0.2127219 
C     5.0414657   -1.3179552   -0.6636846 
H     4.7820607   -3.1232653    0.6533851 
H     5.7304437   -0.6920397   -0.1014081 
