48
Energy =
C    -2.4081735   -1.0580275   -1.6965326 
C    -1.8001120   -0.0398214   -1.0380355 
C    -2.2048944   -1.2270549   -3.0295532 
C    -1.4017917   -0.3686750   -3.6969829 
C    -0.7906326    0.6515609   -3.0433103 
C    -0.9689669    0.8121111   -1.7027808 
H    -1.9807672    0.0839693    0.0260691 
H    -1.2562257   -0.5090860   -4.7625378 
H    -0.1543556    1.3322464   -3.6021930 
H    -3.0583218   -1.7354489   -1.1536522 
C    -0.2940820    1.9566168   -0.9701434 
C     0.5614352    1.4836202    0.2558107 
H    -1.1031144    2.6424948   -0.6348887 
H     0.2808992    2.5712046   -1.6797834 
C     2.0793673    1.7112389    0.2205700 
O    -2.8083637   -2.2715329   -3.7367486 
H    -3.4105074   -2.8597529   -3.1707967 
O     2.8243152    1.1728285    1.2680384 
N    -0.0020606    2.0576663    1.4895725 
H     0.5052755    0.3731108    0.3441183 
H     0.0791729    3.1020678    1.4664383 
H    -1.0127668    1.8046535    1.5846060 
N     2.7879984    2.3790014   -0.8475264 
C     4.1604325    1.9065626   -1.1402044 
H     2.3004278    3.0229327   -1.5005889 
C     5.0475987    3.0418905   -1.6418147 
O     6.2616796    3.2817861   -1.0095463 
O     4.7189979    3.8063750   -2.7641245 
H     3.8442368    3.5215869   -3.1739361 
C     4.1510975    0.7312887   -2.1495261 
H     4.6571001    1.5826906   -0.2005076 
C     3.2635915   -0.4244045   -1.7356953 
H     5.1880633    0.3504756   -2.2847089 
H     3.8229582    1.1056283   -3.1441266 
C     3.4299650   -1.2610218   -0.6965019 
C     4.4099265   -1.3070022    0.2419271 
C     4.3385709   -2.2666116    1.2098368 
C     3.3051497   -3.1620597    1.2193599 
C     2.3367777   -3.1030372    0.2621358 
C     2.4270478   -2.1422217   -0.6805915 
H     5.2265816   -0.5937641    0.2400289 
H     5.1023117   -2.3144361    1.9832803 
H     3.2524739   -3.9217571    1.9956044 
H     1.5104591   -3.8059074    0.2540201 
N     1.5330001   -1.9163511   -1.7598030 
C     2.1546938   -0.7944673   -2.3973757 
H     0.6601216   -2.4307119   -2.0218710 
H     1.7924085   -0.3275068   -3.3079179 
