48
Energy =
C     0.1332765    4.4370100   -3.9093427 
C     0.4799609    3.7140684   -2.8129080 
C    -0.3687367    5.6922043   -3.7689814 
C    -0.5172638    6.2175454   -2.5322395 
C    -0.1683046    5.5012297   -1.4336118 
C     0.3319209    4.2412045   -1.5665181 
H     0.8985031    2.7176476   -2.9396750 
H    -0.9173906    7.2209987   -2.4340657 
H    -0.2939461    5.9465750   -0.4502780 
H     0.2647518    4.0127013   -4.8992040 
C     0.7264337    3.4430174   -0.3378191 
C     2.2573919    3.3830133   -0.0791755 
H     0.3161085    2.4119051   -0.4201024 
H     0.2376367    3.8750272    0.5641927 
C     2.9659987    2.3702633   -0.9669255 
O    -0.7378425    6.4619066   -4.8763007 
H    -0.5792423    6.0066630   -5.7685207 
O     3.2229185    2.6811307   -2.2961493 
N     2.8768663    4.7146646   -0.1780117 
H     2.4082428    3.0155134    0.9624857 
H     2.8942815    5.0245039   -1.1798821 
H     2.3188010    5.4130838    0.3642434 
N     2.9756991    0.9877265   -0.5944022 
C     4.1366971    0.4578939    0.1514614 
H     2.1177061    0.4159809   -0.7552464 
C     4.7065966    1.4354310    1.1819086 
O     4.3453603    1.2886526    2.5150508 
O     5.5317148    2.5037016    0.8315892 
H     5.6436004    2.5823195   -0.1686691 
C     5.1964543   -0.0582657   -0.8466683 
H     3.7917767   -0.4062184    0.7649581 
C     4.7457762   -1.3445999   -1.5053454 
H     6.1572029   -0.2500444   -0.3173580 
H     5.4075924    0.7124481   -1.6198851 
C     4.0913833   -1.4775184   -2.6709516 
C     3.7061710   -0.5353884   -3.5693939 
C     3.0411815   -0.9391107   -4.6894242 
C     2.7725271   -2.2642129   -4.8932281 
C     3.1680481   -3.1935195   -3.9775970 
C     3.8258954   -2.7688327   -2.8781950 
H     3.9198935    0.5166450   -3.4123390 
H     2.7269495   -0.2019980   -5.4240542 
H     2.2435492   -2.5784039   -5.7892537 
H     2.9631162   -4.2485719   -4.1233296 
N     4.3132449   -3.5669874   -1.8090541 
C     4.8897844   -2.5659917   -0.9609341 
H     4.2609645   -4.6027288   -1.6759192 
H     5.3625184   -2.7708354   -0.0032722 
