48
 energy: -9.289852290428 gnorm: 0.000618254448 xtb: 6.6.0 (2ccbbd7)
C            0.55095005020569        6.61247686528090       -5.25973459597952
C            0.44570551149474        5.75657554720044       -4.18891527070412
C            1.80169855553858        6.96278557154895       -5.76997275701480
C            2.93659477469765        6.41945615926645       -5.16850691096436
C            2.82269167631925        5.56451659213181       -4.09979986406631
C            1.57842034879481        5.22382960864194       -3.59073301019715
H           -0.52434344002566        5.49300056334023       -3.80372833973100
H            3.90128128978496        6.68368335579522       -5.56356050243139
H            3.70340904853665        5.13135030348345       -3.65424701975066
H           -0.33281454590788        7.02211613847520       -5.71509516026504
C            1.47384629329815        4.28087130709226       -2.43318951565248
C            1.91401852861192        2.85667529463756       -2.78205035460316
H            0.44676702399810        4.25064989259944       -2.05830718556181
H            2.08234699791418        4.66169310277863       -1.60625926378879
C            1.93373959779237        1.99647200028842       -1.54005066786910
O            1.94066890449560        7.82124057978139       -6.84378075414308
H            1.05787950780226        8.12102545369049       -7.15075848372150
O            0.85889040107341        1.58908234619581       -1.14860448272410
N            1.03420993463611        2.22940253336698       -3.75373833167255
H            2.91630093103074        2.89216745918528       -3.22852378946228
H            0.20918747099070        1.91216275079891       -3.25333525990129
H            0.74558704037294        2.89742289086263       -4.45753370932637
N            3.10866024213048        1.70692098880033       -0.87641346431139
C            4.46031670121352        1.98571127653629       -1.38823839311530
H            3.06907633017105        1.02900201790182       -0.11766974466736
C            4.57357967747831        3.45795250833051       -1.74208157861882
O            4.97935735500975        3.80041686320000       -2.83162228026431
O            4.15806041651282        4.30443385131473       -0.76829329591894
H            3.83764278833702        3.78964245651609        0.00862423973825
C            4.82747205852033        1.02999739410680       -2.53123719570799
H            5.16822793527269        1.80598513982391       -0.56536243034827
C            6.29244290595416        0.95312745500016       -2.80519561828687
H            4.30625548426194        1.33038557885596       -3.44353174763326
H            4.45262909892867        0.03090559369582       -2.28939841297906
C            7.11943426001377       -0.20865563867009       -2.75200160025776
C            6.86016533079484       -1.55596115121875       -2.44606165845754
C            7.89662572083798       -2.44729260439364       -2.48154498487383
C            9.19770130484075       -2.03751570242613       -2.81541334377761
C            9.47344586682398       -0.73217093943570       -3.11788949492861
C            8.42654341812632        0.19774686592404       -3.08772223032379
H            5.86315311139613       -1.86720715075303       -2.19028550918298
H            7.71415554716347       -3.48346462461599       -2.24946652521465
H            9.99126775385401       -2.76610905015914       -2.83292339095809
H           10.46669422405681       -0.40974132870902       -3.37381729707574
N            8.39027735761483        1.55897041100985       -3.33676417097497
C            7.10286636488211        1.99949335773640       -3.16281824905633
H            9.19647971214503        2.12847436570878       -3.60016595879622
H            6.76755564671178        3.01784925942923       -3.26854247211329
