48
 energy: -9.286235345704 gnorm: 0.000419529607 xtb: 6.6.0 (2ccbbd7)
C            3.16342752959043        2.45392752002257        5.71974036355442
C            2.56036352813501        1.83053903747807        4.65306268937337
C            4.43264657701431        3.01826549564655        5.58806893078191
C            5.06520572543198        2.93904978773837        4.34789540898577
C            4.45693980319525        2.31354906813097        3.28708791972538
C            3.19817900089689        1.74619754813631        3.42368048172615
H            1.58214607696457        1.39599100501854        4.76770357714178
H            6.04047050990684        3.38017026471051        4.24230184785952
H            4.95634716069487        2.26684199808722        2.33256688420002
H            2.66246181660858        2.50978079331401        6.66951495401612
C            2.54710666274557        1.06118323229891        2.26244124202285
C            2.22637696344650        2.01398946571152        1.10681166819110
H            1.62104095952654        0.57367894631129        2.58064241482270
H            3.19730161426652        0.25303473310537        1.91586166686134
C            1.82511502742770        1.24151622663919       -0.12921458337607
O            5.07049426465546        3.64229843214742        6.64284557956171
H            4.50678291472549        3.60892173767541        7.44557403648657
O            0.64861376332175        0.97095894303626       -0.25934491202298
N            1.15515412718135        2.93874342088559        1.44396365447674
H            3.10937015478549        2.62722355972367        0.87756295451810
H            0.26969525385369        2.45562097460572        1.31411338291150
H            1.22626372239771        3.24127365941983        2.40810225026502
N            2.77026274647969        0.84140121392993       -1.05538480928078
C            4.20794685963253        0.74547669253532       -0.77222170534020
H            2.46659202584253        0.19836796747096       -1.78190527017933
C            4.80180508769683        2.09454433446075       -0.44440751656406
O            5.63718644052081        2.14071103254267        0.43325719904196
O            4.33947458783716        3.14716529161682       -1.15862979185383
H            3.63254780881102        2.85615119167344       -1.78043483848719
C            4.97069958992573        0.07728012836437       -1.91334622270051
H            4.31495948114376        0.11679066250764        0.12088918836638
C            4.56963528334793       -1.34745376074413       -2.08152883916758
H            6.04727381897172        0.13424039478189       -1.72145537464758
H            4.79625708757935        0.63048325966945       -2.84046607653484
C            4.82309848348934       -2.39189346077773       -1.14453450824241
C            5.53015964882181       -2.43238880290206        0.06963508295155
C            5.56321492322737       -3.60696073234224        0.76841186508445
C            4.90701760235612       -4.75401087586609        0.29258711047588
C            4.21289935111983       -4.73656898314372       -0.88643203377700
C            4.16686003397873       -3.54346940952248       -1.61864083796133
H            6.03163094657446       -1.55115368160266        0.42876263530080
H            6.10052314719167       -3.65520028103343        1.70102472186794
H            4.95071309602836       -5.66273895826631        0.86976244075839
H            3.70328569192052       -5.60881434624528       -1.25450790143864
N            3.54155548706444       -3.20441240945677       -2.80614198755863
C            3.78057103378083       -1.87850910674073       -3.07218646718500
H            2.96057697639054       -3.83749858207786       -3.35870302491178
H            3.38190484801664       -1.33685059559413       -3.91480167406174
