48
Energy =
C     2.6834805    2.5927848   -8.5033427 
C     2.0820882    2.6539067   -7.2885195 
C     4.0308432    2.7446896   -8.6077773 
C     4.7674973    2.9593972   -7.4942262 
C     4.1713557    3.0220912   -6.2768377 
C     2.8232499    2.8677598   -6.1666735 
H     1.0044565    2.5273666   -7.2219958 
H     5.8413295    3.0812394   -7.5903315 
H     4.7825809    3.2028497   -5.3937533 
H     2.0840859    2.4208395   -9.3907975 
C     2.1625851    2.9176197   -4.8078296 
C     2.1676672    1.5399473   -4.0930914 
H     1.1203082    3.2997022   -4.8883710 
H     2.6909554    3.6750380   -4.1762555 
C     1.8345750    1.7352780   -2.6143233 
O     4.6816804    2.6845740   -9.8440340 
H     4.0607402    2.5275449  -10.6302749 
O     0.5918879    2.2826876   -2.3105564 
N     1.1939319    0.6315785   -4.7233717 
H     3.1711212    1.0834381   -4.1794226 
H     0.2363944    1.0595478   -4.7183572 
H     1.4638812    0.4394006   -5.7159307 
N     2.6647303    1.3375517   -1.5005437 
C     4.1203545    1.0815009   -1.6798453 
H     2.1561036    0.6001970   -0.9674340 
C     4.8138109    2.1351237   -2.5583453 
O     4.4686854    3.4697398   -2.4088841 
O     5.7485488    1.8301218   -3.5507439 
H     6.0295152    0.8659764   -3.5746628 
C     4.4047302   -0.4053231   -2.0497641 
H     4.5920874    1.2536053   -0.6866607 
C     3.7817188   -1.3867262   -1.0785922 
H     5.5008574   -0.5890403   -2.0135293 
H     4.0813105   -0.6299606   -3.0847935 
C     2.6892178   -2.1431704   -1.2769947 
C     1.8878729   -2.2507252   -2.3668944 
C     0.8142097   -3.0870975   -2.3036997 
C     0.5575527   -3.7992210   -1.1641486 
C     1.3763216   -3.6762465   -0.0808896 
C     2.4335024   -2.8415382   -0.1696199 
H     2.0794634   -1.6936199   -3.2764919 
H     0.1610517   -3.1807114   -3.1666800 
H    -0.3033072   -4.4623721   -1.1208013 
H     1.1865349   -4.2288411    0.8336518 
N     3.3896185   -2.5592931    0.8415598 
C     4.2238841   -1.6047060    0.1725824 
H     3.4653572   -2.9443342    1.8114434 
H     5.0817146   -1.1131351    0.6264453 
