48
Energy =
C    -1.3706068    5.8930557    0.4684195 
C    -1.3471967    4.5334823    0.5088281 
C    -0.2442343    6.5907102    0.1475393 
C     0.8992364    5.9231047   -0.1286657 
C     0.9135987    4.5707195   -0.0823202 
C    -0.2011725    3.8600426    0.2165776 
H    -2.2497382    3.9928829    0.7806325 
H     1.7940870    6.4779094   -0.3881094 
H     1.8197893    3.8772365   -0.3293485 
H    -2.2901754    6.4203610    0.6980446 
C    -0.1302043    2.3336006    0.3275015 
C     0.7737161    1.6106570   -0.7295922 
H    -1.1591237    1.9210202    0.2400371 
H     0.2300517    2.0776645    1.3475275 
C     2.2718360    1.9118029   -0.5564325 
O    -0.2374384    7.9883969    0.0956918 
H    -1.1318578    8.4122356    0.3159731 
O     2.6892743    3.2464629   -0.5605746 
N     0.5010785    0.1634463   -0.6925881 
H     0.5238869    2.0036872   -1.7442598 
H     0.5438482   -0.1832359    0.2950951 
H    -0.4702681   -0.0168155   -1.0407263 
N     3.2626515    0.8867861   -0.4268106 
C     4.6491389    1.2844527   -0.7343606 
H     3.0047197   -0.0638364   -0.0815030 
C     4.9002614    2.7763488   -0.4658824 
O     6.1977322    3.2770286   -0.5061276 
O     3.9670376    3.5529947   -0.2494070 
H     3.2281742    3.2833823    0.4132824 
C     4.9265297    0.9100833   -2.2056430 
H     5.3399678    0.7272037   -0.0646981 
C     6.4064646    0.8734141   -2.5204151 
H     4.4057503    1.6340073   -2.8733935 
H     4.4804417   -0.0828354   -2.4314520 
C     7.2358012   -0.1687113   -2.3534336 
C     6.9791539   -1.4204571   -1.8932466 
C     8.0141086   -2.3049596   -1.8102224 
C     9.2757601   -1.9288702   -2.1803510 
C     9.5104767   -0.6651326   -2.6348857 
C     8.4698338    0.1906982   -2.7108022 
H     5.9797226   -1.7193344   -1.5919374 
H     7.8356282   -3.3133281   -1.4449564 
H    10.0958762   -2.6386936   -2.1083388 
H    10.5062254   -0.3486892   -2.9262922 
N     8.5013391    1.5446537   -3.1384612 
C     7.1245069    1.9160924   -2.9744118 
H     9.3072300    2.1118498   -3.4882953 
H     6.7291798    2.9199412   -3.1301093 
