48
 energy: -9.181122519830 gnorm: 0.000656370889 xtb: 6.6.0 (2ccbbd7)
C           -3.54413493642984        3.09646220500378       -3.05477983254580
C           -2.27877179428582        3.44364987786503       -2.64321952829269
C           -3.76244685100141        1.90963111366701       -3.75609822453190
C           -2.66673934442897        1.08944515467104       -4.02392599893963
C           -1.40665559534885        1.44322944173343       -3.60879292734089
C           -1.19228139812817        2.62605069496722       -2.91903327587688
H           -2.12164993862704        4.35888906063202       -2.09865189953660
H           -2.83389497657272        0.17426127684053       -4.56305945225705
H           -0.56619768766522        0.80495100597501       -3.82074714747448
H           -4.38023366229662        3.73709783684625       -2.83847129803810
C            0.18138557616333        2.97247015062001       -2.43907832144997
C            0.60195845272598        2.15506607714125       -1.21320928590865
H            0.24231136490720        4.03673849824401       -2.19402625639325
H            0.90132748130743        2.81716706573624       -3.24902673667034
C            2.05110432024864        2.36363554982364       -0.92654686529489
O           -5.02071603120526        1.53194212353573       -4.18560253015297
H           -5.68092354634560        2.21053790279389       -3.92541399360674
O            2.55058664827554        3.66674122921548       -0.89023273025331
N           -0.20046937289755        2.47201036123131       -0.03953140808518
H            0.45144899630534        1.08716663447217       -1.43604149013702
H            0.01962746437816        3.41191063833335        0.26259443932337
H           -1.18561002450382        2.44874131925668       -0.27033147252398
N            2.90415606453903        1.29600023536541       -0.69498742940535
C            4.24800167732115        1.26051575468903       -1.28328537751930
H            2.48884574098693        0.36745210961555       -0.69421089481224
C            4.69036614497272        2.59919857990047       -1.84025004221648
O            5.56989573903438        2.59431819425222       -2.70058860811118
O            4.10623749604188        3.79010526614294       -1.36471955698918
H            3.57622002721104        3.68025169439301       -0.34943967961407
C            4.32734214586327        0.16800019372525       -2.36689568234191
H            4.94726609078106        1.02503644522643       -0.46621020800982
C            3.16010511758037        0.16127953657850       -3.30309761869378
H            4.39905368476139       -0.81745016598987       -1.89435351041210
H            5.25053360977871        0.29846845187059       -2.94148321419979
C            2.84727756932668        1.11558417197758       -4.31843679134937
C            3.46658807396964        2.30169433850216       -4.74879603246374
C            2.90944472688301        3.00403255414919       -5.78000652786043
C            1.73888408161053        2.55634631629915       -6.41284846460931
C            1.11600635600627        1.40548503537323       -6.01458372364000
C            1.66902135956765        0.67607807124504       -4.95386614239010
H            4.35375135289264        2.64688878424059       -4.24993524771078
H            3.37421677598722        3.91767802261382       -6.11198993136467
H            1.32519406807012        3.13143165986824       -7.22468576427094
H            0.21744248530567        1.05682176663167       -6.49130922668190
N            1.26274593351148       -0.48776408346224       -4.32421845101623
C            2.17121663765712       -0.79197675405958       -3.34002712169979
H            0.49526707308602       -1.08525285168297       -4.63921379435470
H            2.11933683493304       -1.66083335261489       -2.70412870538747
