48
 energy: -9.072983034421 gnorm: 0.000514624829 xtb: 6.6.0 (2ccbbd7)
C            0.49333566208889       -1.19638245652644        1.69212649887692
C           -0.04606894531884        0.05883449787323        1.53493284357682
C            1.85473053734858       -1.35831253917983        1.95319041454773
C            2.64740333320954       -0.21602916882559        2.05747493072640
C            2.10001075088283        1.03436160797085        1.90187471483385
C            0.74691418022343        1.19294845910321        1.63703926809744
H           -1.09588270659662        0.17028082928609        1.32377907871468
H            3.69771584096077       -0.33826800181659        2.25271263785500
H            2.72774475783067        1.90812928093497        1.95078293287287
H           -0.12999577948210       -2.06870796481478        1.60974842238258
C            0.18410159222769        2.55737878363641        1.37886946405462
C            0.43345500113061        3.03551927430519       -0.05732004783699
H            0.63470001144175        3.26527609124484        2.08251913222956
H           -0.88962764727727        2.55912892687221        1.58990100166467
C            1.90629318447058        3.03653951875751       -0.37896867698853
O            2.42919952480314       -2.60653066568878        2.10257675707655
H            1.74457368860976       -3.30430456197876        2.01022881267877
O            2.58241884747303        4.01473835335002       -0.12985375799744
N           -0.27987917144778        2.23769317001448       -1.05512062888814
H            0.09585278590103        4.07984310214831       -0.16526813662960
H           -0.18173509433707        1.25697116156268       -0.82551038071313
H           -1.27244679904387        2.43014629996189       -1.01032807353320
N            2.41576914761970        1.89970984734331       -0.96692837052647
C            3.57021614323413        1.99822245368305       -1.83893934302081
H            1.79512020495140        1.12105760641837       -1.20903194059564
C            3.12315535248147        2.42316092787409       -3.21118340667295
O            4.06109971831149        2.72529498219800       -4.15236505372975
O            1.77439796326378        2.48821230807786       -3.50055659881861
H            1.19135811869792        2.42604322920025       -2.69232991709935
C            4.36355340106117        0.66971067410342       -1.84083263428542
H            4.19673900643841        2.79804458074829       -1.41607899621428
C            5.84049856883981        0.85080183027643       -1.71765710328789
H            4.13267096720255        0.10535049617316       -2.74998500176982
H            4.01535775599710        0.05035754683160       -1.00708965815580
C            6.63650338158990        1.76888061162958       -2.45789572653575
C            6.31592891812532        2.69909048700424       -3.44967012245079
C            7.30699512427470        3.46793103707292       -3.98105730067708
C            8.63628123842821        3.33332307274652       -3.54358073148740
C            8.97635988055717        2.42641890145675       -2.57543273763109
C            7.96696628192694        1.62890625246379       -2.01960379912854
H            5.13708831795989        2.73303968194657       -3.80634561700243
H            7.06505477052531        4.18454955977229       -4.74806380732196
H            9.39956887032607        3.95488090894089       -3.98143490590519
H            9.99072905463265        2.31610765133433       -2.23635440294520
N            7.97455489850819        0.64426729131822       -1.04643619278023
C            6.69152842080225        0.18236473654065       -0.87150882681966
H            8.80570961630226        0.33328603537098       -0.54019917520074
H            6.40233674898665       -0.58457460836943       -0.17118344280787
