48
Energy =
C     1.7001379   -2.8843737   -0.1628554 
C     1.7647096   -1.7337535   -0.8797641 
C     0.5209876   -3.2821686    0.3849135 
C    -0.5842685   -2.5218544    0.2158812 
C    -0.5245772   -1.3690087   -0.4981824 
C     0.6509673   -0.9704465   -1.0585695 
H     2.7184496   -1.4167786   -1.2929576 
H    -1.5170058   -2.8477650    0.6635580 
H    -1.4248100   -0.7713552   -0.6147731 
H     2.5957788   -3.4811537   -0.0235948 
C     0.7215318    0.3181779   -1.8530636 
C     1.3922165    1.4597184   -1.0502520 
H    -0.3034565    0.6330418   -2.1496987 
H     1.2668209    0.1412857   -2.8069294 
C     2.9016797    1.2855286   -0.9519348 
O     0.4178750   -4.4640954    1.1247528 
H     1.2955441   -4.9620857    1.2278219 
O     3.4198906    0.8033508    0.2455919 
N     1.0465925    2.7635489   -1.6422956 
H     1.0229878    1.4354441    0.0051446 
H     1.1640720    2.7459896   -2.6834070 
H     0.0390462    2.9788843   -1.4518725 
N     3.7027772    1.1612498   -2.1445909 
C     5.1000770    1.6351722   -1.9551464 
H     3.2500805    1.7059993   -2.9145039 
C     5.3233355    3.1197643   -2.2978583 
O     6.5555516    3.5287966   -2.7968849 
O     4.3714530    4.1065032   -2.0450524 
H     3.5688826    3.7557530   -1.5473815 
C     6.0219004    0.6954731   -2.7696084 
H     5.4239373    1.5547695   -0.8892892 
C     5.6860000    0.6845957   -4.2494972 
H     5.9427658   -0.3338144   -2.3586292 
H     7.0856290    0.9952671   -2.6322398 
C     4.8052637   -0.1171059   -4.8715992 
C     4.0331275   -1.1165154   -4.3727166 
C     3.1985661   -1.7797529   -5.2231626 
C     3.1496708   -1.4391848   -6.5466307 
C     3.9352241   -0.4333564   -7.0266090 
C     4.7528215    0.2070043   -6.1645433 
H     4.0721042   -1.3850200   -3.3232212 
H     2.5699879   -2.5834846   -4.8471737 
H     2.4823315   -1.9722179   -7.2194126 
H     3.9075682   -0.1490477   -8.0731047 
N     5.6351904    1.2808169   -6.4560794 
C     6.1971184    1.5336273   -5.1592709 
H     5.8263805    1.7554326   -7.3684223 
H     6.9191180    2.3201117   -4.9382852 
