48
Energy =
C    -1.1364339   -0.5200795    1.1468202 
C     0.0963050   -0.9893754    0.8272691 
C    -1.8415903    0.2168810    0.2481977 
C    -1.3074661    0.4784913   -0.9656317 
C    -0.0769532    0.0088543   -1.2919166 
C     0.6398716   -0.7226190   -0.3940255 
H     0.6416917   -1.5804200    1.5576682 
H    -1.8774959    1.0708190   -1.6727490 
H     0.3276720    0.2303979   -2.2739504 
H    -1.5576308   -0.7370928    2.1223336 
C     2.0164959   -1.2535538   -0.7546838 
C     3.1521227   -0.1979116   -0.6644854 
H     1.9816677   -1.6711187   -1.7856972 
H     2.2774049   -2.1121258   -0.0972600 
C     3.0053927    0.9102406   -1.6987400 
O    -3.1165849    0.7106782    0.5443505 
H    -3.4363040    0.4903520    1.4808742 
O     2.3083982    2.0723764   -1.3919212 
N     3.2939231    0.3551822    0.6978735 
H     4.0957691   -0.7215637   -0.9359832 
H     2.6133631   -0.0542596    1.3766638 
H     4.2528378    0.1647072    1.0707551 
N     3.2833427    0.6369545   -3.0783540 
C     4.6958689    0.5137919   -3.4852058 
H     2.4792225    0.4853495   -3.7263185 
C     5.0553533    1.5314889   -4.5661693 
O     6.1047103    2.4140978   -4.3440177 
O     4.4143414    1.5527829   -5.8069063 
H     3.6379321    0.9114768   -5.8374583 
C     4.9496301   -0.9366977   -3.9450015 
H     5.3741686    0.7426477   -2.6281752 
C     6.4098189   -1.1721189   -4.2646454 
H     4.3330636   -1.1679224   -4.8415484 
H     4.6208260   -1.6476553   -3.1577787 
C     7.3745993   -1.5407085   -3.4071107 
C     7.3000010   -1.8269623   -2.0816523 
C     8.4468784   -2.1683581   -1.4268374 
C     9.6378350   -2.2142478   -2.0976481 
C     9.6891709   -1.9182631   -3.4275505 
C     8.5406563   -1.5869897   -4.0538271 
H     6.3579483   -1.7854041   -1.5458548 
H     8.4152851   -2.4014457   -0.3651989 
H    10.5486067   -2.4829175   -1.5679898 
H    10.6263672   -1.9419552   -3.9733195 
N     8.3800379   -1.2275593   -5.4186068 
C     6.9706295   -0.9641343   -5.4692896 
H     9.0946794   -1.1781201   -6.1809329 
H     6.4399044   -0.5935098   -6.3466910 
