48
Energy =
C    -0.6211242   -0.8050904   -6.8069173 
C    -0.0865825   -0.6989893   -5.5612637 
C     0.1889130   -0.8137753   -7.9016074 
C     1.5297227   -0.7209056   -7.7423507 
C     2.0642778   -0.6134288   -6.4971221 
C     1.2623168   -0.5925277   -5.4034405 
H    -0.7375565   -0.7080426   -4.6906496 
H     2.1600779   -0.7413113   -8.6257870 
H     3.1421996   -0.5601288   -6.3145480 
H    -1.6960108   -0.8880870   -6.9267741 
C     1.8995655   -0.4718357   -4.0322893 
C     1.5262384    0.8375849   -3.3086748 
H     3.0231276   -0.4838141   -4.1477757 
H     1.5924055   -1.3520202   -3.4262002 
C     2.1490578    0.8023601   -1.9318383 
O    -0.3271108   -0.9207968   -9.1967975 
H    -1.3380198   -0.9913873   -9.2338406 
O     1.5728626    0.0154811   -0.9354222 
N     1.9638924    2.0287961   -4.0633601 
H     0.4266318    0.8811941   -3.1646923 
H     2.9605581    1.8532397   -4.3429114 
H     1.4168581    2.0858673   -4.9507384 
N     3.2380183    1.6689093   -1.5768024 
C     4.4410316    0.8903229   -1.1791147 
H     2.8833023    2.2128316   -0.7557865 
C     5.3941130    1.7509451   -0.3591624 
O     5.8068050    1.3067237    0.8952088 
O     5.9131249    2.9506675   -0.8582941 
H     5.5783624    3.1664558   -1.7908756 
C     5.1997827    0.3497447   -2.4314560 
H     4.1534356    0.0591626   -0.4974278 
C     5.1519040   -1.1593967   -2.6303649 
H     6.2736824    0.6325233   -2.3676349 
H     4.8396445    0.8489146   -3.3535333 
C     6.0395195   -1.8742543   -3.3438368 
C     7.1509227   -1.4651909   -4.0115059 
C     7.8910787   -2.3980649   -4.6763859 
C     7.5128925   -3.7117769   -4.6713497 
C     6.3904780   -4.0995993   -4.0029602 
C     5.6774665   -3.1586039   -3.3490365 
H     7.4527059   -0.4222907   -4.0323006 
H     8.7842843   -2.0931420   -5.2166776 
H     8.1062355   -4.4494557   -5.2067411 
H     6.0701608   -5.1364235   -3.9957933 
N     4.4789437   -3.3513347   -2.6182861 
C     4.1897010   -2.0065152   -2.2096318 
H     3.9512527   -4.2301608   -2.4119062 
H     3.2761583   -1.7188368   -1.6988555 
