48
Energy =
C    -2.6317633   -2.1257103    0.3487088 
C    -1.3737155   -1.8541106   -0.0819999 
C    -3.1326891   -1.4895518    1.4414313 
C    -2.3698826   -0.5846290    2.0958252 
C    -1.1113680   -0.3091977    1.6695183 
C    -0.6038684   -0.9459564    0.5789243 
H    -0.9898078   -2.3676745   -0.9590732 
H    -2.7805537   -0.0827586    2.9649867 
H    -0.5141141    0.4233608    2.2066536 
H    -3.2364940   -2.8518376   -0.1836367 
C     0.7916184   -0.6230450    0.0928288 
C     0.8338858    0.6993290   -0.7105328 
H     1.1944523   -1.4602519   -0.5184241 
H     1.4645505   -0.5400212    0.9770967 
C     2.2633717    1.1437933   -0.9717965 
O    -4.4255799   -1.7453615    1.9100616 
H    -4.9295334   -2.4391121    1.3689505 
O     2.7810302    2.2191462   -0.2601810 
N     0.0766501    0.5752578   -1.9673709 
H     0.3827839    1.5117045   -0.0921504 
H     0.3555812   -0.3009962   -2.4676975 
H    -0.9444886    0.4960869   -1.7483720 
N     3.1301175    0.3836962   -1.8314420 
C     3.7536050    1.0714429   -2.9780315 
H     3.2464111   -0.6407730   -1.6707041 
C     4.8239195    2.0734610   -2.5302338 
O     4.5816254    3.4429701   -2.5963105 
O     6.0753817    1.6388897   -2.0885928 
H     6.0987621    0.6369666   -1.9659605 
C     2.6646117    1.6870175   -3.8890741 
H     4.2959601    0.3050439   -3.5745594 
C     3.2282566    2.1470466   -5.2163666 
H     2.1710693    2.5393485   -3.3685341 
H     1.8703778    0.9342320   -4.0778807 
C     3.4954282    1.3774029   -6.2830927 
C     3.3194044    0.0424398   -6.4585776 
C     3.6830084   -0.5072553   -7.6527060 
C     4.2123929    0.2758954   -8.6411009 
C     4.3817574    1.6139311   -8.4412269 
C     4.0125616    2.1344998   -7.2521305 
H     2.9025738   -0.5814374   -5.6733631 
H     3.5534288   -1.5740716   -7.8190427 
H     4.5020884   -0.1702836   -9.5894342 
H     4.8042191    2.2483211   -9.2133702 
N     4.1134231    3.4900536   -6.8393185 
C     3.5886196    3.4105038   -5.5053993 
H     4.4676313    4.3199971   -7.3693788 
H     3.5215610    4.2507681   -4.8131976 
