48
Energy =
C    -4.4585410    0.5451294   -2.7251768 
C    -3.1598043    0.7802793   -3.0410703 
C    -4.9617242    0.9752287   -1.5373119 
C    -4.1602196    1.6378346   -0.6728011 
C    -2.8606236    1.8758298   -0.9832342 
C    -2.3535306    1.4515911   -2.1732413 
H    -2.7702522    0.4264920   -3.9928702 
H    -4.5735981    1.9733758    0.2719890 
H    -2.2324213    2.4047272   -0.2717517 
H    -5.0928308    0.0107112   -3.4242179 
C    -0.9013881    1.6944260   -2.5189692 
C    -0.0314589    0.4423706   -2.2617854 
H    -0.5038957    2.5646175   -1.9526764 
H    -0.8324973    1.9783443   -3.5948620 
C     1.3523633    0.6052944   -2.8637081 
O    -6.2947735    0.7483034   -1.1799586 
H    -6.8295535    0.2483470   -1.8818625 
O     1.6083939    0.0018564   -4.0895330 
N     0.0381702    0.1324613   -0.8216490 
H    -0.4744830   -0.4275433   -2.8058879 
H     0.2076108    0.9981299   -0.2590721 
H    -0.8817237   -0.2602832   -0.5085123 
N     2.3089062    1.5111874   -2.2759172 
C     3.7268140    1.5692300   -2.7016394 
H     1.9785687    2.1342889   -1.5068677 
C     3.9670742    2.6500136   -3.7537624 
O     4.8148792    3.7074249   -3.4468483 
O     3.3865903    2.6148084   -5.0212331 
H     2.7501297    1.8380344   -5.1168262 
C     4.2940523    0.1813209   -3.0974475 
H     4.3065483    1.9117382   -1.8132495 
C     5.8034014    0.1426051   -2.9926982 
H     3.9878511   -0.0995242   -4.1282507 
H     3.8612244   -0.5972580   -2.4305595 
C     6.6918068    0.4674634   -3.9467941 
C     6.4900843    0.8724151   -5.2273848 
C     7.5798031    1.1519055   -5.9983327 
C     8.8408123    1.0228879   -5.4854897 
C     9.0196816    0.6146641   -4.1971861 
C     7.9257758    0.3444184   -3.4542103 
H     5.4915530    0.9830751   -5.6392017 
H     7.4430320    1.4852423   -7.0244490 
H     9.7036030    1.2517397   -6.1059290 
H    10.0127247    0.5119240   -3.7733788 
N     7.8924319   -0.0803762   -2.0989041 
C     6.4803135   -0.1807956   -1.8766682 
H     8.6862123   -0.2696516   -1.4451099 
H     6.0263686   -0.4642002   -0.9295082 
