48
Energy =
C    -4.3204077   -0.8250954    0.3593795 
C    -3.2219295   -0.8259664   -0.4371991 
C    -4.2131408   -1.1631605    1.6721285 
C    -3.0052022   -1.4993473    2.1790772 
C    -1.9030135   -1.5014233    1.3872782 
C    -2.0058538   -1.1675999    0.0718568 
H    -3.3237936   -0.5481092   -1.4829638 
H    -2.9328529   -1.7658711    3.2277826 
H    -0.9406020   -1.7726204    1.8133940 
H    -5.2841990   -0.5518879   -0.0561018 
C    -0.7741487   -1.1541248   -0.8062010 
C     0.0870622    0.1180846   -0.6002185 
H    -1.0492359   -1.2499023   -1.8802964 
H    -0.1636669   -2.0569717   -0.5766196 
C     1.4272776    0.0357831   -1.3297474 
O    -5.3252318   -1.1718116    2.5205052 
H    -6.1926152   -0.9093596    2.0652840 
O     1.6898408   -1.0745952   -2.1167696 
N    -0.6552315    1.3195620   -1.0159880 
H     0.3399546    0.2044369    0.4807874 
H    -1.0048031    1.2054143   -1.9967577 
H    -1.4844974    1.4613384   -0.3931719 
N     2.3490737    1.1484142   -1.2250061 
C     3.7399049    1.1020627   -1.7758316 
H     2.4308300    1.3114843   -0.1957408 
C     4.2431356    2.5510138   -1.9884529 
O     5.0999999    2.8539910   -3.0418784 
O     3.9644501    3.5841114   -1.0903034 
H     3.3010459    3.3237829   -0.3815568 
C     3.9024501    0.2734394   -3.0955473 
H     4.4364264    0.7483615   -1.0129644 
C     4.1438954   -1.2453818   -3.0997806 
H     4.7559408    0.6613465   -3.6889621 
H     2.9994860    0.4875151   -3.7099611 
C     4.6116970   -2.1309951   -2.1729665 
C     4.9847752   -1.9885460   -0.8663562 
C     5.4236016   -3.0807436   -0.1779300 
C     5.4898870   -4.2993352   -0.7823048 
C     5.1166013   -4.4365215   -2.0803461 
C     4.6842006   -3.3451508   -2.7450958 
H     4.9475033   -1.0648160   -0.3304769 
H     5.7215404   -2.9800048    0.8632703 
H     5.8409554   -5.1642074   -0.2248333 
H     5.1631204   -5.3998139   -2.5770434 
N     4.2688955   -3.3123175   -4.0969068 
C     3.9422310   -1.9321005   -4.2443542 
H     4.2232873   -4.0875269   -4.7974752 
H     3.5828189   -1.4961885   -5.1740931 
