48
Energy =
C     2.7339006    3.7680493    3.3539884 
C     2.6816091    2.5464214    2.7637133 
C     1.6015134    4.5068583    3.4970091 
C     0.4241689    4.0190546    3.0448491 
C     0.3667758    2.7998995    2.4514499 
C     1.4961047    2.0523240    2.3115161 
H     3.5971690    1.9700171    2.6475880 
H    -0.4710832    4.6199108    3.1615869 
H    -0.5881724    2.4282819    2.0889492 
H     3.6841097    4.1540235    3.7076242 
C     1.4290288    0.7001752    1.6317790 
C     1.4714449    0.8293888    0.0881244 
H     0.4898754    0.1941789    1.9453245 
H     2.2560855    0.0397596    1.9781724 
C     2.8657468    1.1377615   -0.4522301 
O     1.6195816    5.7672300    4.1029223 
H     2.5423012    6.0712256    4.3944952 
O     3.9809734    1.1095631    0.3844373 
N     0.9380412   -0.3957751   -0.5279084 
H     0.8283247    1.6866581   -0.2181899 
H     1.5037999   -1.2198559   -0.2080679 
H    -0.0493631   -0.5503641   -0.2155557 
N     3.0277106    1.5508921   -1.8173368 
C     4.3320347    1.3160374   -2.4650866 
H     2.2174085    1.9591507   -2.3347502 
C     4.9480303    2.6389019   -2.8983031 
O     4.9544122    3.0041342   -4.2405426 
O     5.4953489    3.5167363   -1.9634931 
H     5.3445789    3.1894291   -1.0175802 
C     4.1434405    0.3397327   -3.6448054 
H     5.0723844    0.8739362   -1.7577769 
C     3.7831613   -1.0463253   -3.1602159 
H     5.0763439    0.2854356   -4.2491446 
H     3.3552414    0.7267579   -4.3290339 
C     4.6326473   -1.9897437   -2.7251693 
C     5.9873555   -1.9663561   -2.6353935 
C     6.6227037   -3.0674511   -2.1411350 
C     5.9030401   -4.1613437   -1.7462242 
C     4.5429823   -4.1602170   -1.8420170 
C     3.9377942   -3.0598025   -2.3360050 
H     6.5605435   -1.0965609   -2.9429503 
H     7.7069624   -3.0738911   -2.0580752 
H     6.4170618   -5.0340295   -1.3513272 
H     3.9572296   -5.0175869   -1.5287638 
N     2.5431145   -2.8487815   -2.5039761 
C     2.5299189   -1.5142702   -3.0320882 
H     1.7452829   -3.4915712   -2.2951180 
H     1.6287538   -0.9410448   -3.2431437 
