48
Energy =
C    -2.1122056    3.7470011    1.8605230 
C    -1.7137921    2.8714930    0.9030222 
C    -1.4142409    3.8530325    3.0229587 
C    -0.3205919    3.0817904    3.2183942 
C     0.0824858    2.2052728    2.2641134 
C    -0.6149303    2.0923317    1.1008409 
H    -2.2782726    2.8008801   -0.0229209 
H     0.2284341    3.1762407    4.1486980 
H     0.9648447    1.5949545    2.4378921 
H    -2.9893047    4.3627223    1.6935266 
C    -0.1553078    1.1275260    0.0305174 
C     1.0348370    1.6809828   -0.7930801 
H    -0.9918350    0.8616066   -0.6528381 
H     0.1464341    0.1725427    0.5176852 
C     1.6404769    0.6339557   -1.7228732 
O    -1.7975691    4.7452324    4.0297679 
H    -2.6256189    5.2863624    3.8066000 
O     1.1052679   -0.6478111   -1.7500507 
N     0.6268932    2.8736042   -1.5557370 
H     1.8574096    1.9547472   -0.0935872 
H    -0.2352292    2.6612300   -2.1112765 
H     0.3935841    3.6520276   -0.8957505 
N     2.8088578    0.9787988   -2.4973431 
C     3.4941357    0.1357561   -3.5135503 
H     3.2023968    1.9320819   -2.3186897 
C     3.7846375    0.9614631   -4.7611493 
O     5.0392628    0.8768925   -5.3523350 
O     2.8043219    1.7421530   -5.3746448 
H     1.9466308    1.7416580   -4.8405708 
C     2.7673217   -1.1817423   -3.9227037 
H     4.4985163   -0.1065521   -3.1078269 
C     3.1227738   -2.3732945   -3.0422579 
H     3.0771414   -1.4728264   -4.9522209 
H     1.6779046   -1.0016514   -4.0024526 
C     2.2834080   -3.2914770   -2.5212221 
C     0.9270266   -3.3627841   -2.5558548 
C     0.3123011   -4.4294606   -1.9661402 
C     1.0544207   -5.4072625   -1.3661757 
C     2.4139094   -5.3233464   -1.3495280 
C     2.9972813   -4.2542268   -1.9308924 
H     0.3357316   -2.5768955   -3.0134414 
H    -0.7732787   -4.4996439   -1.9670280 
H     0.5593703   -6.2555897   -0.8988542 
H     3.0188337   -6.0950226   -0.8843277 
N     4.3884821   -4.0072849   -2.0536844 
C     4.3841126   -2.7852405   -2.8006803 
H     5.1981999   -4.5702679   -1.7032835 
H     5.2841423   -2.3037419   -3.1773669 
