48
 energy: -8.966868458018 gnorm: 0.000754699631 xtb: 6.6.0 (2ccbbd7)
C           -2.57901318273726       -2.46913560745170       -4.25694289758035
C           -2.18249491408971       -1.82364292733851       -3.10934307003512
C           -1.64112665604926       -3.08483937787333       -5.08624841125207
C           -0.29746633213965       -3.02619911649941       -4.71886206247029
C            0.08858394578461       -2.38061784265589       -3.56887838831635
C           -0.84404823054268       -1.76851099919912       -2.74517630740877
H           -2.91529958857421       -1.34618831356321       -2.48149189120659
H            0.42867441800776       -3.49149162290770       -5.36106964884954
H            1.13188924989847       -2.31522483163742       -3.31170067048531
H           -3.61904298745977       -2.50515089834667       -4.52761436946477
C           -0.42294385925583       -1.01962031607160       -1.51577906960184
C            0.01278079627212        0.43585869035189       -1.76395134408562
H            0.39566954718890       -1.55886172183411       -1.02791817155913
H           -1.25389644497827       -1.03752382690272       -0.80180633127760
C            1.50236566345198        0.56984904548607       -2.18239802197128
O           -2.00707501684732       -3.73983411198000       -6.24726701126588
H           -2.98139778034265       -3.69854073944081       -6.36187806046319
O            1.84993704352161       -0.32002632716086       -3.27709645889514
N           -0.75256627216781        1.11836165523492       -2.87988934939682
H           -0.11265945507282        1.02355451355483       -0.84316589455159
H           -1.10876107125522        0.39983271480714       -3.53365266582767
H           -1.58112569066783        1.63432545497158       -2.52156721345594
N            2.50248014019278        0.56680894634686       -1.08408487539346
C            3.89972666635828        1.00808250155494       -1.30836062128391
H            2.11649386566384        1.11910960969765       -0.31547240607877
C            3.97739309161283        2.52267877048470       -1.24682376723288
O            4.08846070445144        3.15719404103043       -2.27319339089477
O            3.87969811382829        3.07021378103854       -0.00761582301838
H            3.81100379675777        2.37732756036250        0.68610748659394
C            4.59204851995453        0.43517006296852       -2.56125033029715
H            4.46363794065628        0.63567060771198       -0.43792188767858
C            3.93995314745940        0.76697329808857       -3.85400105136504
H            4.63376348356672       -0.65570124123237       -2.47542893840301
H            5.62835379530450        0.78747228305291       -2.59198498961703
C            2.44174446340580        0.79174379195197       -4.00510156999745
C            1.59602361830644        1.78799358205563       -3.15774831469620
C            0.17339121886798        2.04874817443187       -3.69149503922976
C            0.00248650796144        1.84443409057243       -5.16826739940789
C            0.95915611599900        1.32821173795656       -5.98939137849662
C            2.17310480656052        0.87138082744165       -5.48308531333244
H            2.14851326187635        2.65403448421026       -2.77345638529508
H           -0.05323847334849        3.30725107828849       -3.50384882516998
H           -0.93036671105088        2.16545698596650       -5.59865742600709
H            0.80930710642100        1.31466688292372       -7.05521153217749
N            3.41757810152408        0.75106748679398       -6.06573798166796
C            4.44710699173855        0.69468183039621       -5.10556836437562
H            3.59281383725501        0.90355047785700       -7.05901662612778
H            5.48972773957928        0.56505071744492       -5.34202414616376
