48
Energy =
C     0.4982469   -0.9997937   -4.7451455 
C     0.2593674   -0.0062152   -3.8534654 
C     1.1674552   -0.7362033   -5.8985181 
C     1.6030207    0.5199678   -6.1463525 
C     1.3690707    1.5178220   -5.2564665 
C     0.6915455    1.2612217   -4.1041145 
H    -0.2775901   -0.2348186   -2.9352943 
H     2.1357069    0.7170675   -7.0702328 
H     1.7227432    2.5215081   -5.4766126 
H     0.1511200   -2.0050598   -4.5317345 
C     0.4253729    2.3703290   -3.1070009 
C     1.5130017    2.4940418   -2.0055985 
H    -0.5618722    2.1931197   -2.6200832 
H     0.3199220    3.3426385   -3.6368595 
C     1.6320183    1.2355360   -1.1701382 
O     1.4210126   -1.7358218   -6.8435808 
H     1.0242908   -2.6372063   -6.5992212 
O     0.5818950    0.8673217   -0.3384471 
N     2.8166770    2.9079788   -2.5702130 
H     1.1829740    3.2734471   -1.2783022 
H     3.1824946    2.1568286   -3.2027322 
H     2.6505881    3.6927520   -3.2465528 
N     2.6960162    0.3040679   -1.4032376 
C     4.0082590    0.7825535   -0.8945966 
H     2.7168622    0.0963641   -2.4255495 
C     4.2036812    2.3173957   -0.7607878 
O     3.7000808    3.2877613   -1.6732033 
O     5.0019121    2.8115993    0.2747537 
H     5.3802712    2.0882535    0.8667337 
C     5.1669464    0.1696652   -1.7177215 
H     4.0931728    0.3877281    0.1414944 
C     5.1023597   -1.3428720   -1.7538908 
H     6.1416874    0.4648449   -1.2678498 
H     5.1640456    0.5936274   -2.7438242 
C     4.7317548   -2.1190524   -2.7870593 
C     4.3436867   -1.7790727   -4.0446789 
C     4.0302673   -2.7776861   -4.9186312 
C     4.0988257   -4.0856468   -4.5278805 
C     4.4857963   -4.4040550   -3.2604768 
C     4.7967746   -3.3992975   -2.4149621 
H     4.2811633   -0.7444813   -4.3641666 
H     3.7267234   -2.5318061   -5.9336475 
H     3.8462887   -4.8746113   -5.2317276 
H     4.5474049   -5.4366086   -2.9343079 
N     5.2272452   -3.5170948   -1.0667015 
C     5.4010711   -2.1398995   -0.7127467 
H     5.3800569   -4.3764373   -0.4910067 
H     5.7241164   -1.7955175    0.2664089 
