48
Energy =
C    -3.9752619    2.2602314   -2.9918022 
C    -2.6981860    2.7198738   -3.0065976 
C    -4.2256504    0.9435643   -2.7604997 
C    -3.1949910    0.0953488   -2.5437184 
C    -1.9163680    0.5488620   -2.5576480 
C    -1.6602841    1.8652684   -2.7929117 
H    -2.5149136    3.7758821   -3.1884731 
H    -3.4081283   -0.9513239   -2.3568153 
H    -1.1018530   -0.1479867   -2.3767716 
H    -4.7958001    2.9483740   -3.1642199 
C    -0.2350093    2.3693256   -2.7955496 
C     0.3207693    2.5450959   -1.3626963 
H    -0.1502002    3.3299154   -3.3525552 
H     0.3904431    1.6416291   -3.3602524 
C     1.8414115    2.6195778   -1.3896761 
O    -5.5292121    0.4371523   -2.7393665 
H    -6.2452320    1.1356130   -2.9070113 
O     2.4310485    3.7880086   -1.8544920 
N    -0.2597038    3.7343254   -0.7198350 
H     0.0570797    1.6550255   -0.7456956 
H    -0.0357012    4.5941401   -1.2770240 
H    -1.3010800    3.6432418   -0.6696923 
N     2.5932299    1.3875919   -1.3010181 
C     4.0675801    1.2792094   -1.4810628 
H     2.0248195    0.5130322   -1.3078198 
C     4.8051795    2.5442081   -1.9373828 
O     5.6712472    3.1753791   -1.0508676 
O     4.7347102    3.0124261   -3.2514889 
H     3.9558817    2.6001221   -3.7405631 
C     4.3966422    0.0884767   -2.4208122 
H     4.5056082    1.0555411   -0.4821985 
C     3.9636890   -1.2448300   -1.8463169 
H     5.4961057    0.0445085   -2.5987736 
H     3.9330347    0.2495703   -3.4161305 
C     2.8677293   -1.9536183   -2.1707521 
C     1.8916118   -1.6897263   -3.0798298 
C     0.8619061   -2.5755413   -3.2019103 
C     0.8211671   -3.6984016   -2.4228926 
C     1.8101588   -3.9425469   -1.5168296 
C     2.8196797   -3.0525913   -1.4156790 
H     1.9166806   -0.7981312   -3.6979269 
H     0.0700756   -2.3893068   -3.9239167 
H    -0.0025264   -4.4006391   -2.5262890 
H     1.7914390   -4.8272152   -0.8892310 
N     3.9291529   -3.1109319   -0.5305811 
C     4.6177422   -1.9008586   -0.8719097 
H     4.1740457   -3.8390241    0.1794024 
H     5.5358248   -1.5609098   -0.3973671 
