48
Energy =
C    -1.9113833    0.4065945    3.0556753 
C    -0.6876007    0.2469811    2.4917738 
C    -2.4072803    1.6543012    3.2711322 
C    -1.6737767    2.7349339    2.9199695 
C    -0.4492142    2.5814111    2.3554049 
C     0.0529821    1.3347096    2.1408118 
H    -0.3080176   -0.7569971    2.3212045 
H    -2.0811698    3.7244337    3.0966075 
H     0.1248490    3.4620016    2.0780071 
H    -2.4927122   -0.4662107    3.3322418 
C     1.4101572    1.1638289    1.4948301 
C     1.3656287    1.3673116   -0.0401116 
H     1.8396325    0.1638357    1.7268416 
H     2.1140407    1.8994964    1.9468290 
C     2.7589551    1.3645804   -0.6551150 
O    -3.6655267    1.8536459    3.8484586 
H    -4.1493142    0.9955680    4.0895350 
O     3.8866672    1.3127949    0.1620123 
N     0.5167635    0.3457327   -0.6753780 
H     0.9480859    2.3777423   -0.2566453 
H     0.8164333   -0.6087973   -0.3618028 
H    -0.4780909    0.4781494   -0.3766613 
N     2.9265632    1.6742463   -2.0461510 
C     4.1195899    1.1398726   -2.7290269 
H     2.1884213    2.2144080   -2.5515142 
C     4.9570157    2.2797951   -3.2929299 
O     4.9817747    2.5215287   -4.6625180 
O     5.6989052    3.1101273   -2.4542241 
H     5.5280218    2.9006209   -1.4786462 
C     3.6774898    0.1416690   -3.8197451 
H     4.7990738    0.6130086   -2.0182662 
C     3.0522148   -1.0967084   -3.2193572 
H     4.5514370   -0.1564078   -4.4412697 
H     2.9613847    0.6392882   -4.5121526 
C     3.6998208   -2.1484578   -2.6949310 
C     5.0326349   -2.3861321   -2.5914607 
C     5.4395819   -3.5447443   -1.9978234 
C     4.5192722   -4.4371357   -1.5210676 
C     3.1858953   -4.1757890   -1.6344843 
C     2.8084619   -3.0233617   -2.2266152 
H     5.7652126   -1.6772814   -2.9666725 
H     6.5015919   -3.7586800   -1.9015672 
H     4.8521904   -5.3577064   -1.0480405 
H     2.4433080   -4.8716369   -1.2592528 
N     1.4823760   -2.5578642   -2.4335095 
C     1.7315068   -1.2972727   -3.0731739 
H     0.5736672   -3.0092200   -2.1801708 
H     0.9601167   -0.5807070   -3.3512098 
