48
Energy =
C     4.4472539   -1.8200507    1.5504389 
C     3.2045605   -1.2834950    1.4508668 
C     5.5049872   -1.0348115    1.8860287 
C     5.3107115    0.2826561    2.1238709 
C     4.0703698    0.8242992    2.0232652 
C     3.0082234    0.0422669    1.6914144 
H     2.3669834   -1.9162078    1.1597891 
H     6.1632474    0.9037576    2.3772329 
H     3.9391349    1.8899626    2.1946839 
H     4.5945182   -2.8761273    1.3516451 
C     1.6322645    0.6522784    1.5337768 
C     1.4352642    1.2610609    0.1275714 
H     1.4894114    1.4418280    2.3039861 
H     0.8446043   -0.1121032    1.7214805 
C     1.6127768    0.2190106   -0.9742790 
O     6.7998410   -1.5543478    1.9792629 
H     6.8568190   -2.5537586    1.8188713 
O     1.0088412   -1.0286811   -0.8460959 
N     0.1081220    1.8888921    0.0382847 
H     2.2057043    2.0496003   -0.0272304 
H    -0.6365689    1.1658640    0.1902987 
H     0.0053114    2.6175133    0.7831508 
N     2.2342047    0.5467983   -2.2267541 
C     3.7088081    0.4240924   -2.1666764 
H     1.9176515    1.5049797   -2.5080672 
C     4.3935907    1.6700232   -1.5979942 
O     3.9167822    2.9324929   -1.9279382 
O     5.5466107    1.5814613   -0.8194183 
H     5.8635091    0.6292369   -0.7076766 
C     4.2015125    0.1270675   -3.5942473 
H     3.9856144   -0.4435051   -1.5204883 
C     5.6605264   -0.2731109   -3.6203724 
H     4.0185738    1.0053308   -4.2524298 
H     3.5916474   -0.7035591   -4.0169557 
C     6.7209797    0.5345204   -3.7864306 
C     6.7735315    1.8747452   -4.0003928 
C     7.9973467    2.4641133   -4.1212878 
C     9.1375832    1.7152075   -4.0273140 
C     9.0609631    0.3717599   -3.8092035 
C     7.8386805   -0.1886551   -3.6940551 
H     5.8718892    2.4776528   -4.0614328 
H     8.0653356    3.5373651   -4.2839764 
H    10.1091548    2.1945326   -4.1190674 
H     9.9561196   -0.2350155   -3.7236907 
N     7.5415299   -1.5561731   -3.4481658 
C     6.1092773   -1.5230299   -3.4089867 
H     8.1945604   -2.3648420   -3.3299372 
H     5.4788292   -2.3885325   -3.2159224 
