48
Energy =
C    -0.3913434   -1.0639714   -4.9590952 
C    -0.7631476   -0.7909368   -3.6863159 
C     0.9105586   -0.9687189   -5.3287122 
C     1.8364796   -0.5835402   -4.4207852 
C     1.4789021   -0.2439247   -3.1433328 
C     0.1570713   -0.3994989   -2.7650631 
H    -1.8091025   -0.8902160   -3.4078768 
H     2.8743146   -0.5579329   -4.7207501 
H     2.4469091    0.0032425   -2.2704952 
H    -1.1395440   -1.3738118   -5.6799565 
C    -0.3172476   -0.0962523   -1.3522391 
C     0.7676682    0.5035382   -0.4325162 
H    -0.7093675   -1.0315636   -0.8967094 
H    -1.1616847    0.6266723   -1.4195309 
C     1.5353023    1.5974451   -1.1635646 
O     1.3244422   -1.2700135   -6.6333267 
H     0.5709077   -1.5533141   -7.2491871 
O     1.2824707    2.9369266   -0.8922775 
N     0.1672355    0.9804522    0.8229510 
H     1.5105069   -0.2884891   -0.1858374 
H    -0.4710884    1.7893909    0.6255065 
H    -0.4121713    0.2225305    1.2535793 
N     2.2387830    1.2636938   -2.3908111 
C     3.6343392    1.8587549   -2.4144521 
H     1.6965940    1.8936976   -3.0821445 
C     3.7272652    3.2145447   -3.1356129 
O     4.2718717    4.3041188   -2.4704580 
O     3.3595299    3.3598427   -4.4742134 
H     3.0153653    2.4947078   -4.8653018 
C     4.6876738    0.8671125   -2.9915003 
H     3.9606984    2.1177782   -1.3711033 
C     6.1036917    1.3175593   -2.6876988 
H     4.5623506    0.7572060   -4.0881295 
H     4.5677873   -0.1515620   -2.5623276 
C     6.9017027    2.0807045   -3.4551018 
C     6.6815823    2.6186383   -4.6828766 
C     7.6670740    3.3745919   -5.2469397 
C     8.8458879    3.5783173   -4.5849290 
C     9.0457076    3.0287482   -3.3537291 
C     8.0556628    2.2854410   -2.8164060 
H     5.7447706    2.4682264   -5.2096356 
H     7.5105734    3.8239786   -6.2252377 
H     9.6245284    4.1862385   -5.0391630 
H     9.9725351    3.1855534   -2.8124046 
N     8.0591605    1.6402759   -1.5511125 
C     6.7570061    1.0424995   -1.5442992 
H     8.8125485    1.6085279   -0.8263964 
H     6.3542754    0.4595022   -0.7192675 
