48
Energy =
C     0.7192485    5.6011570    0.4634764 
C     0.6837402    4.3966354   -0.1736273 
C    -0.2770907    6.5052700    0.2890465 
C    -1.3183453    6.2030233   -0.5145236 
C    -1.3754592    5.0063415   -1.1482231 
C    -0.3870350    4.0834065   -0.9769251 
H     1.5865104    3.5808339    0.1145694 
H    -2.1049342    6.9369926   -0.6511942 
H    -2.2178656    4.8016852   -1.8032059 
H     1.5526595    5.8377768    1.1125428 
C    -0.4356603    2.7880597   -1.7769432 
C    -0.2486959    1.4726266   -0.9750331 
H     0.3195783    2.8622428   -2.5887873 
H    -1.4117394    2.7091094   -2.3051515 
C     1.2144955    1.1643697   -0.6592637 
O    -0.2605237    7.7497147    0.9299660 
H     0.5684953    7.9248563    1.4869491 
O     1.6524718    1.1281774    0.6632650 
N    -1.1059611    1.4607426    0.2221209 
H    -0.5724450    0.6268130   -1.6243000 
H    -0.7439257    2.1426629    0.9294948 
H    -2.0752065    1.7642151   -0.0306764 
N     2.1458252    0.8089804   -1.7019430 
C     3.3657758    1.6566846   -1.6692860 
H     1.6781275    0.8997726   -2.6341363 
C     3.2009647    3.0019285   -2.3870101 
O     3.6206512    3.1623908   -3.7026613 
O     2.6252290    4.0971752   -1.7313934 
H     2.0840192    3.8094656   -0.7470646 
C     4.5765821    0.8279044   -2.1714294 
H     3.6199503    1.9401443   -0.6204140 
C     4.3496762    0.1326214   -3.5032039 
H     4.7911942    0.0413826   -1.4137089 
H     5.4838324    1.4672547   -2.2103573 
C     4.8534673    0.4685621   -4.7051860 
C     5.6608478    1.5019049   -5.0609614 
C     6.0436617    1.6096908   -6.3659620 
C     5.6254661    0.6898941   -7.2865387 
C     4.8198171   -0.3419288   -6.9082519 
C     4.4502185   -0.4241390   -5.6128988 
H     5.9833527    2.2439621   -4.3378405 
H     6.6785557    2.4362019   -6.6763574 
H     5.9332901    0.7834793   -8.3250103 
H     4.4800083   -1.0814199   -7.6253719 
N     3.6352569   -1.4237409   -5.0193474 
C     3.6259308   -0.9923921   -3.6530820 
H     3.1720707   -2.2513536   -5.4601741 
H     3.1128785   -1.5139093   -2.8473447 
