48
 energy: -9.294307635447 gnorm: 0.000456707955 xtb: 6.6.0 (2ccbbd7)
C           -3.00088817451050       -0.54823974028922        1.17808080718769
C           -1.74938075113888        0.00883925511028        1.05953738295395
C           -3.33842513637396       -1.69544249878069        0.45891230284022
C           -2.37654545967622       -2.25596212322838       -0.38104214707504
C           -1.12808276814565       -1.69385023160317       -0.49267152514605
C           -0.79347039941284       -0.55889095589008        0.23029558188387
H           -1.50015197936592        0.89869632848725        1.61195717688549
H           -2.63811220975448       -3.13752963609845       -0.93850742782538
H           -0.39751500893560       -2.12850037351121       -1.15194921562408
H           -3.73391130753112       -0.10217937142536        1.82604967770390
C            0.55128772842659        0.07438153874284        0.06888589818649
C            0.56153564031271        1.20619810485791       -0.95998984292587
H            1.27879949725388       -0.68445039050922       -0.23534746116601
H            0.90660347290957        0.45153361802824        1.03377092873721
C            1.95528345570215        1.78083491119591       -1.06055508530927
O           -4.58598974959489       -2.28157531133297        0.55392162984998
H           -5.14697196015857       -1.78044662019190        1.18437631006465
O            2.40594053763823        2.42359582858981       -0.13248287436812
N            0.05436019387434        0.76657524122654       -2.25521431384467
H           -0.09336187106112        2.01993102620170       -0.61084997318992
H            0.58399480781122       -0.02577439480498       -2.59425613205138
H           -0.90739682943196        0.46256197379731       -2.17379265251426
N            2.69681722941500        1.51565961379466       -2.19038684793821
C            4.15613988735784        1.51438960012240       -2.15736583703391
H            2.30038533594902        0.94717505612597       -2.94207914944278
C            4.67522291519013        2.86333316265089       -2.60977079214761
O            5.46513109937926        2.93023307775047       -3.52495722086612
O            4.17225745337615        3.89929105778035       -1.89758633832673
H            3.53566940311780        3.53322110734039       -1.23128874115619
C            4.71874172338601        0.34487790516067       -2.96402069139912
H            4.44030409072370        1.38142086360223       -1.10271045403164
C            4.11575118824318       -0.94631625946367       -2.52287097977400
H            5.80871652061349        0.31109926069961       -2.87114088046245
H            4.51184598274641        0.51371476727166       -4.02434947128540
C            2.93085667461796       -1.54907804956445       -3.04636130494729
C            2.11599478334002       -1.25789133436813       -4.15506016918850
C            0.99476125551491       -2.01283954899037       -4.36040209366293
C            0.65736499392033       -3.06602762811269       -3.49516394070898
C            1.44123632808322       -3.37575979797942       -2.41806961873429
C            2.59033471626513       -2.61054924936746       -2.18567502485719
H            2.38647483257418       -0.46558703950384       -4.83115971935434
H            0.36175212627169       -1.80390918250683       -5.20712082630704
H           -0.22943186823912       -3.64587275787832       -3.69138546163180
H            1.19711474537356       -4.18693077706656       -1.75552381272627
N            3.54011325832962       -2.65239007777923       -1.18096300614527
C            4.44774882976268       -1.64313552808305       -1.38659561494162
H            3.53886049502281       -3.31689760813764       -0.40506093136996
H            5.26540927806233       -1.40662314646341       -0.72463584589563
