48
 energy: -8.968190257584 gnorm: 0.000566301270 xtb: 6.6.0 (2ccbbd7)
C           -3.07974883632208       -1.32548319741035        1.29636451167898
C           -1.81591099836143       -1.17364712176196        0.77649090890205
C           -4.14045379090483       -1.71967039643459        0.48008955439016
C           -3.88323201248316       -1.95242615491442       -0.87075054295013
C           -2.61687937104552       -1.79873342408473       -1.38298952592942
C           -1.56337984191073       -1.41336720039390       -0.56647122600686
H           -1.00502445903977       -0.86273840188184        1.41274395367561
H           -4.70089287252897       -2.25468994951701       -1.50018564194935
H           -2.43348607240081       -1.98042395130695       -2.42799765290764
H           -3.26329288989982       -1.13930684447577        2.33934574775354
C           -0.19104151961234       -1.20488270717272       -1.12686264911986
C            0.12467274704686        0.26401099224829       -1.38028344748532
H           -0.08064667237251       -1.75636357006521       -2.06560096541832
H            0.55511634685135       -1.63139527321045       -0.44833045608605
C            1.54412679945013        0.45151591068745       -1.96766260959757
O           -5.42245594601670       -1.88097193572108        0.97113561782680
H           -5.43937473139906       -1.68690512819116        1.93340095759093
O            1.77217040165218       -0.45288616717453       -3.08587758239623
N           -0.79463670685655        0.89166414611385       -2.40755810207979
H            0.05474530512993        0.83128526870393       -0.44245332255667
H           -1.19206795896031        0.14580927595265       -3.00685537822805
H           -1.59831951210323        1.37627160682871       -1.96002900622660
N            2.66210329503726        0.50189445311508       -0.98987057188946
C            4.01789667414032        0.93692377871973       -1.40060459510998
H            2.37366049824504        1.15246934030536       -0.24869532215413
C            4.07583493543904        2.45562049919942       -1.41060859739227
O            3.09819071306354        3.05338078785312       -1.01425905569020
O            5.21838217840918        3.04905622226928       -1.84190235503642
H            5.90851335160424        2.38743180225179       -2.06483069669156
C            4.52540089870105        0.30039209778689       -2.70791615015567
H            4.68553765535326        0.60925083370563       -0.58781762238434
C            3.74940959424929        0.67944131947268       -3.91569877314899
H            4.47173813284665       -0.78860991897282       -2.60540980923479
H            5.58119765051338        0.53563072450158       -2.87052678275610
C            2.24347119788432        0.66351667323256       -3.89649111766625
C            1.47607058746783        1.64933987488615       -2.96850064607144
C           -0.00993209222560        1.85035216625795       -3.32854094357352
C           -0.34539545700105        1.62921563438972       -4.77428777259377
C            0.52705526220967        1.13954067819869       -5.69919737791287
C            1.80592909698429        0.72538967367698       -5.33482422983728
H            2.03786141500923        2.54213918264219       -2.66861097395474
H           -0.26062583678327        3.10031550951081       -3.11674624831756
H           -1.33148932611182        1.91841526124097       -5.09468464108326
H            0.25725577211535        1.11572359051166       -6.74096630961176
N            2.98079772661462        0.65287048776951       -6.05429399555154
C            4.11406638340423        0.62061247914987       -5.21789044361918
H            3.03504129135525        0.78011900314597       -7.06483696095091
H            5.12317563373776        0.49050368957987       -5.57105001832023
