48
Energy =
C     2.6810148   -0.9057624    1.9008250 
C     1.9751397    0.0511007    1.2467753 
C     2.0570906   -2.0263645    2.3524476 
C     0.7301570   -2.1818911    2.1452031 
C     0.0197047   -1.2288475    1.4918789 
C     0.6384115   -0.1044071    1.0372202 
H     2.4871913    0.9406045    0.8912062 
H     0.2440400   -3.0804346    2.5076601 
H    -1.0450488   -1.3752663    1.3331658 
H     3.7449953   -0.7731771    2.0622951 
C    -0.1466011    0.9562923    0.2919788 
C    -0.1769734    0.7285388   -1.2424482 
H     0.2821207    1.9581005    0.5126141 
H    -1.1874018    0.9969960    0.6829645 
C     1.2217121    0.6433355   -1.8518389 
O     2.7545195   -3.0300585    3.0328261 
H     3.7455027   -2.8444009    3.1391849 
O     1.6642470   -0.5520470   -2.4117552 
N    -1.0049922   -0.4427640   -1.5778144 
H    -0.6463245    1.6186591   -1.7193235 
H    -0.5188785   -1.3207833   -1.2752928 
H    -1.9255213   -0.3983204   -1.0832681 
N     2.0741407    1.8102189   -1.8462570 
C     3.3968385    1.8395422   -2.5140774 
H     1.7686080    2.6377215   -1.2867139 
C     3.2938130    2.1768159   -4.0011243 
O     3.8685127    3.3556207   -4.4609097 
O     2.6803014    1.3359176   -4.9293388 
H     2.2410200    0.5430483   -4.4867518 
C     4.2414353    0.5722008   -2.2209402 
H     3.9483990    2.7047773   -2.0774167 
C     5.7252791    0.8501724   -2.3238547 
H     3.9758213   -0.2573551   -2.9118541 
H     4.0073257    0.1962723   -1.2008078 
C     6.4878818    0.7849625   -3.4280000 
C     6.1587978    0.4332367   -4.6978859 
C     7.1338662    0.4588705   -5.6510807 
C     8.4091705    0.8296669   -5.3255518 
C     8.7169024    1.1786613   -4.0441774 
C     7.7347872    1.1456779   -3.1189452 
H     5.1469565    0.1432795   -4.9649322 
H     6.8925333    0.1885197   -6.6766174 
H     9.1792301    0.8510133   -6.0926709 
H     9.7222045    1.4798972   -3.7702748 
N     7.8412244    1.4794412   -1.7420257 
C     6.4938414    1.2677852   -1.3025485 
H     8.6794817    1.7923905   -1.2007630 
H     6.1455297    1.4398263   -0.2866477 
