48
Energy =
C     1.6533389    0.9560866    5.3335469 
C     2.1737328    0.1901333    4.3381187 
C     1.2293482    2.2245377    5.0740987 
C     1.3325316    2.7205468    3.8199760 
C     1.8511744    1.9537365    2.8310225 
C     2.2641410    0.6819545    3.0727239 
H     2.5176890   -0.8157937    4.5639671 
H     1.0011177    3.7333578    3.6187256 
H     1.9852690    2.3013439    1.7082861 
H     1.5809719    0.5534865    6.3381325 
C     2.8804530   -0.1525222    1.9501483 
C     2.2842071    0.1520413    0.5418487 
H     2.7197989   -1.2296329    2.1784271 
H     3.9781578    0.0243102    1.9373955 
C     2.6793850    1.5566282    0.0064797 
O     0.6878184    3.0358041    6.0761544 
H     0.6534949    2.5962637    6.9893002 
O     2.1026040    2.6423642    0.6626907 
N     2.5186901   -0.9634461   -0.3937322 
H     1.1765038    0.2467031    0.6710584 
H     3.3735248   -1.5108442   -0.1327438 
H     1.7299934   -1.6487725   -0.3171745 
N     3.8159024    1.8964506   -0.8157723 
C     4.7354405    0.8416442   -1.2871614 
H     3.4794338    2.5176793   -1.5874694 
C     6.1402571    1.4304687   -1.4120793 
O     6.7535216    1.5636508   -2.6526943 
O     6.8363929    1.8576144   -0.2828581 
H     6.2329196    1.8921213    0.5258420 
C     4.2152228    0.2255882   -2.6208223 
H     4.8569315    0.0624396   -0.5106924 
C     4.6557037   -1.2162930   -2.8150024 
H     4.5541504    0.8252791   -3.4955584 
H     3.1097543    0.2901091   -2.6323457 
C     3.8757142   -2.2708926   -3.1257753 
C     2.5329593   -2.3421197   -3.3293266 
C     1.9841524   -3.5519851   -3.6395865 
C     2.7745662   -4.6618670   -3.7458358 
C     4.1186709   -4.5684400   -3.5438387 
C     4.6374185   -3.3615854   -3.2354560 
H     1.8967486   -1.4681166   -3.2523893 
H     0.9130620   -3.6332591   -3.8083283 
H     2.3314715   -5.6222688   -3.9981189 
H     4.7627434   -5.4371793   -3.6312954 
N     6.0021926   -3.0542921   -3.0034911 
C     5.9302069   -1.6460169   -2.7514182 
H     6.8375048   -3.6844514   -3.0065629 
H     6.8011903   -1.0193668   -2.5700258 
