48
Energy =
C     5.7407588    1.2990273    3.0741338 
C     4.9701797    0.7450682    2.1047924 
C     5.5323238    0.9786168    4.3785284 
C     4.5483447    0.1099944    4.7043211 
C     3.7717421   -0.4438660    3.7388514 
C     3.9835501   -0.1361059    2.4294942 
H     5.1375598    1.0263405    1.0702753 
H     4.3876541   -0.1317744    5.7496060 
H     2.9802663   -1.1324821    4.0233556 
H     6.5192205    2.0042190    2.8040854 
C     3.1050426   -0.7428539    1.3546609 
C     1.8876823    0.1513677    1.0258195 
H     2.7493209   -1.7410938    1.6946413 
H     3.6935534   -0.9337304    0.4336574 
C     2.2841744    1.4026748    0.2580265 
O     6.3123601    1.5258396    5.4021553 
H     7.0054235    2.1948904    5.0840869 
O     2.7233787    2.5251278    0.9514131 
N     0.8783070   -0.6318096    0.2916894 
H     1.4333322    0.5247147    1.9753261 
H     1.3271297   -1.1440280   -0.5049003 
H     0.4657066   -1.3534701    0.9293602 
N     2.2854562    1.4305469   -1.1741068 
C     3.5734477    1.6493761   -1.8499968 
H     1.4055171    1.1906742   -1.6839146 
C     3.4935567    2.8986736   -2.7238233 
O     3.1713178    2.7884983   -4.0732636 
O     3.6829638    4.1701826   -2.1860653 
H     3.7273894    4.1400692   -1.1756324 
C     3.9400028    0.3808703   -2.6495989 
H     4.3803871    1.8382332   -1.1054734 
C     5.3611116    0.4417609   -3.1715803 
H     3.2306234    0.2531986   -3.4991491 
H     3.8182229   -0.5170111   -2.0083960 
C     6.4768751    0.0857978   -2.5140873 
C     6.6253620   -0.4446627   -1.2732001 
C     7.8863054   -0.7082518   -0.8258930 
C     8.9691357   -0.4404296   -1.6168397 
C     8.7966624    0.0916686   -2.8602134 
C     7.5386114    0.3412971   -3.2801737 
H     5.7702425   -0.6616714   -0.6464047 
H     8.0316097   -1.1343098    0.1639358 
H     9.9717659   -0.6518384   -1.2535046 
H     9.6445037    0.3133805   -3.4995262 
N     7.1443673    0.9011873   -4.5238035 
C     5.7188703    0.9393305   -4.3695024 
H     7.7327166    1.1987066   -5.3356148 
H     5.0299517    1.3503852   -5.1071669 
