48
Energy =
C     1.6842451   -3.6562122    0.6714383 
C     1.4419144   -2.3990470    1.1214687 
C     1.2682803   -4.0305281   -0.5676418 
C     0.6098523   -3.1434498   -1.3470277 
C     0.3749049   -1.8823548   -0.9076438 
C     0.7898987   -1.5002856    0.3322232 
H     1.7795678   -2.1156258    2.1143174 
H     0.2816640   -3.4524402   -2.3331713 
H    -0.1462878   -1.1863348   -1.5591745 
H     2.2130992   -4.3601797    1.3046469 
C     0.5216864   -0.0926909    0.8280553 
C     1.8149404    0.7193796    1.0827070 
H    -0.0603982   -0.1534367    1.7733750 
H    -0.1226258    0.4564890    0.1062375 
C     2.7971438    0.6529194   -0.0751870 
O     1.5064636   -5.3164639   -1.0646135 
H     2.0023893   -5.9222748   -0.4196996 
O     4.0284037    0.0310056    0.1009004 
N     1.4675766    2.1125026    1.4105988 
H     2.3587583    0.2748007    1.9492760 
H     0.8323470    2.5111327    0.6776323 
H     0.9401370    2.1371731    2.3157086 
N     2.4566014    1.1620131   -1.3687634 
C     3.3669591    2.1602185   -1.9578339 
H     1.5567330    0.8810816   -1.8171003 
C     2.6136063    3.4270154   -2.3452009 
O     2.4035204    3.7488014   -3.6797698 
O     2.1305940    4.3001902   -1.3723280 
H     2.3423571    3.9773573   -0.4383713 
C     4.1700225    1.5229435   -3.1223733 
H     4.1114933    2.5071215   -1.2014930 
C     3.3461432    0.6083687   -4.0115409 
H     5.0149183    0.9435010   -2.6913200 
H     4.6395647    2.3175584   -3.7449926 
C     3.2059668   -0.7232877   -3.8857737 
C     3.7387002   -1.5754222   -2.9716065 
C     3.4527343   -2.9039826   -3.0784379 
C     2.6443409   -3.3584002   -4.0823701 
C     2.1141257   -2.4854981   -4.9848793 
C     2.4134340   -1.1753222   -4.8593768 
H     4.3759897   -1.2216443   -2.1674192 
H     3.8626172   -3.6053980   -2.3552375 
H     2.4178921   -4.4199112   -4.1532239 
H     1.4701579   -2.8294999   -5.7868793 
N     1.9758728   -0.1129030   -5.6934492 
C     2.6255794    1.0074133   -5.0755775 
H     1.3505110   -0.1408432   -6.5314267 
H     2.5520891    2.0330473   -5.4330116 
