48
Energy =
C    -0.3458490    2.1568276   -6.2969242 
C     0.1833177    2.5339383   -5.1057336 
C    -1.6900498    1.9976617   -6.4279313 
C    -2.4958266    2.2180427   -5.3642868 
C    -1.9721982    2.5952208   -4.1703138 
C    -0.6275056    2.7582051   -4.0352057 
H     1.2606095    2.6549549   -5.0149719 
H    -3.5658252    2.0872859   -5.4821807 
H    -2.6367218    2.7629136   -3.3270751 
H     0.3094742    1.9819058   -7.1433679 
C    -0.0321987    3.1588831   -2.7036907 
C     0.5972302    1.9571978   -1.9559061 
H    -0.7921053    3.6530243   -2.0579561 
H     0.7502819    3.9318389   -2.8856920 
C     1.4104730    2.4069482   -0.7436484 
O    -2.2679341    1.6069649   -7.6404102 
H    -1.5977426    1.4709669   -8.3893927 
O     1.2919582    3.7098799   -0.2678976 
N    -0.4405761    0.9903893   -1.5611793 
H     1.3144688    1.4629386   -2.6468050 
H    -1.1879018    1.4766047   -1.0104631 
H    -0.8907738    0.5874101   -2.4165317 
N     2.2270149    1.4852981   -0.0009485 
C     3.3192339    0.7268069   -0.6536972 
H     2.0303666    1.3830414    1.0201870 
C     3.9600760    1.4684124   -1.8485466 
O     4.0197317    2.8566470   -1.8380869 
O     4.5602998    0.8138711   -2.9291453 
H     4.6747419   -0.1748687   -2.7975838 
C     2.7989147   -0.7025695   -0.9616727 
H     4.1470995    0.6342951    0.0826997 
C     2.2719560   -1.3856788    0.2833901 
H     3.5964220   -1.3527180   -1.3714843 
H     1.9909311   -0.6537512   -1.7241114 
C     2.9994347   -1.9585696    1.2558226 
C     4.3453977   -2.1001730    1.3680065 
C     4.8411685   -2.7254791    2.4744454 
C     3.9942388   -3.1934848    3.4410111 
C     2.6462502   -3.0387532    3.3070994 
C     2.1804150   -2.4179741    2.2031159 
H     5.0189054   -1.7275328    0.6027075 
H     5.9152092   -2.8512313    2.5896484 
H     4.3966523   -3.6893817    4.3208911 
H     1.9605321   -3.4013196    4.0653872 
N     0.8246257   -2.1495526    1.8763156 
C     0.9733370   -1.4739307    0.6204292 
H    -0.0455404   -2.3826992    2.4072513 
H     0.1486625   -1.0706512    0.0382091 
