48
Energy =
C    -1.1657436   -0.8273215   -4.7820142 
C     0.1445267   -0.8308787   -4.4245338 
C    -1.9242596   -1.9408090   -4.6064987 
C    -1.3669996   -3.0508225   -4.0738572 
C    -0.0593803   -3.0587192   -3.7114336 
C     0.7078756   -1.9430744   -3.8760719 
H     0.7380758    0.0707291   -4.5605107 
H    -1.9832406   -3.9333123   -3.9408806 
H     0.3642224   -3.9646386   -3.2871132 
H    -1.6072595    0.0694160   -5.2040157 
C     2.1840959   -1.9557815   -3.4824513 
C     2.5900419   -1.3391829   -2.0385211 
H     2.7055220   -1.4736306   -4.3313396 
H     2.5163337   -3.0122860   -3.5019812 
C     2.4418652    0.2173216   -2.1116008 
O    -3.2751247   -1.9722470   -4.9665881 
H    -3.6248813   -1.0954746   -5.3377305 
O     1.2027279    0.8089532   -2.3365409 
N     1.4550894   -1.8456191   -1.1823607 
H     4.3234200   -1.5286461   -1.4259103 
H     0.5417052   -1.3676536   -1.3796654 
H     1.3318273   -2.8808337   -1.2627376 
N     3.5241270    1.0956240   -1.7572152 
C     4.6220462    1.3802914   -2.7209401 
H     3.5533993    1.4412638   -0.7729125 
C     4.4460899    2.7155763   -3.4379041 
O     5.5760825    3.4735578   -3.7202878 
O     3.2101287    3.1709503   -3.8964232 
H     2.4545727    2.5863014   -3.5715032 
C     4.8751098    0.2280242   -3.7224292 
H     5.5561017    1.4959703   -2.1252925 
C     4.6841960   -1.0510053   -2.9950550 
H     5.9121795    0.2817344   -4.1229166 
H     4.1650378    0.2857983   -4.5745270 
C     3.5520794   -1.6970797    0.0565708 
C     3.0674545   -1.2858019    1.2269466 
C     2.8732449   -2.2587281    2.1611673 
C     3.1800110   -3.5811460    1.9178872 
C     3.6997564   -4.0092327    0.7220664 
C     3.9124275   -3.1225759   -0.2667776 
H     2.8381674   -0.2420881    1.4146230 
H     2.4683402   -1.9798652    3.1308198 
H     3.0103052   -4.3109716    2.7055947 
H     3.9461542   -5.0542438    0.5688380 
N     4.5724252   -3.4997578   -1.7390946 
C     4.9956947   -2.5426217   -3.0317850 
H     4.0344413   -4.3150091   -2.1117316 
H     5.5235031   -2.9639144   -3.8839162 
