48
Energy =
C     2.3349078   -6.0466836   -3.7071508 
C     1.7365177   -4.8956683   -3.3082999 
C     2.7035495   -6.9793085   -2.7885204 
C     2.4701002   -6.7528427   -1.4757194 
C     1.8711335   -5.6041633   -1.0716241 
C     1.4979735   -4.6685414   -1.9872507 
H     1.4486636   -4.1579829   -4.0522573 
H     2.7704944   -7.5025546   -0.7521728 
H     1.6979110   -5.4370719   -0.0117190 
H     2.5185774   -6.2190435   -4.7619590 
C     0.8440731   -3.3778021   -1.5427868 
C     1.8405811   -2.1924456   -1.4907643 
H     0.3616758   -3.5018442   -0.5477210 
H     0.0138080   -3.1400040   -2.2445931 
C     1.1146455   -0.8449511   -1.3170030 
O     3.3238238   -8.1749218   -3.1663195 
H     3.4569844   -8.2712755   -4.1667379 
O    -0.2558598   -0.8577307   -1.0684860 
N     2.8191607   -2.4077803   -0.4113074 
H     2.3706335   -2.1599845   -2.4637555 
H     2.3196846   -2.5688598    0.4965697 
H     3.3896307   -3.2629312   -0.6113300 
N     1.6988696    0.4494447   -1.6017697 
C     3.1683923    0.5065465   -1.8183072 
H     1.4199893    1.0388114   -0.7821418 
C     3.8126324    1.7470792   -1.1875972 
O     3.0866974    2.9266327   -1.0671836 
O     5.1629833    1.7601100   -0.8302844 
H     5.5910722    0.8487331   -0.9099734 
C     3.4488001    0.4721834   -3.3373298 
H     3.6836111   -0.3486191   -1.3422277 
C     2.8522905    1.6653613   -4.0603183 
H     3.0207397   -0.4529890   -3.7743848 
H     4.5437709    0.4152591   -3.5182552 
C     3.4673366    2.8215310   -4.3619645 
C     4.7441426    3.2201701   -4.1238206 
C     5.1189626    4.4689565   -4.5242164 
C     4.2233156    5.2927104   -5.1477428 
C     2.9455858    4.8740790   -5.3714299 
C     2.5987256    3.6340060   -4.9675551 
H     5.4549323    2.5793262   -3.6102836 
H     6.1325667    4.8153721   -4.3351896 
H     4.5282078    6.2897016   -5.4566049 
H     2.2196298    5.5198467   -5.8541259 
N     1.3235183    3.0199618   -5.0853510 
C     1.5707893    1.7529022   -4.4623485 
H     0.4464286    3.3874696   -5.5210409 
H     0.8123130    0.9890459   -4.3009693 
