48
Energy =
C    -2.5067792    1.8127913    2.7274799 
C    -1.2309844    1.9451438    2.2837117 
C    -3.5503816    2.0284502    1.8825045 
C    -3.3092612    2.3768025    0.5981206 
C    -2.0357738    2.5103622    0.1491374 
C    -0.9878989    2.2970108    0.9910355 
H    -0.4066782    1.7644354    2.9688762 
H    -4.1493780    2.5470464   -0.0660193 
H    -1.8610707    2.7890275   -0.8869070 
H    -2.6901952    1.5323378    3.7589517 
C     0.4314975    2.4273899    0.4844292 
C     0.8773678    1.2007249   -0.3437200 
H     1.1427525    2.5882959    1.3256517 
H     0.5028287    3.3435057   -0.1450256 
C     2.2093343    1.4807915   -1.0274063 
O    -4.8767943    1.8964961    2.3067197 
H    -4.9737877    1.6471544    3.2848500 
O     3.3010963    1.8052150   -0.2228928 
N     0.9774666    0.0030171    0.5039762 
H     0.1229340    1.0077915   -1.1387161 
H     1.6625658    0.1777107    1.2785974 
H     0.0493043   -0.2098299    0.9361134 
N     2.2406058    1.8269708   -2.4297873 
C     3.5739485    1.5931269   -3.0459978 
H     1.5144521    1.2613593   -2.9231102 
C     3.8189657    2.5367477   -4.2181076 
O     5.1097849    3.0005492   -4.4402118 
O     2.8288718    2.8586423   -5.1485770 
H     1.9226890    2.5230815   -4.8645432 
C     3.7449288    0.1192627   -3.5034450 
H     4.3961291    1.8611592   -2.3379420 
C     3.8205458   -0.8438284   -2.3379175 
H     4.6933536    0.0251846   -4.0818371 
H     2.9361513   -0.1611066   -4.2102735 
C     2.8455786   -1.6440333   -1.8729740 
C     1.5707533   -1.8139424   -2.3093773 
C     0.7686580   -2.6963055   -1.6452177 
C     1.2477239   -3.3878452   -0.5670412 
C     2.5302815   -3.2000338   -0.1456635 
C     3.3032442   -2.3226069   -0.8189510 
H     1.1850553   -1.2584058   -3.1564408 
H    -0.2594328   -2.8446139   -1.9678250 
H     0.6023347   -4.0847411   -0.0377155 
H     2.9248857   -3.7345891    0.7118769 
N     4.6523348   -1.9797894   -0.5391329 
C     4.9080100   -1.0116740   -1.5646350 
H     5.2916055   -2.3434641    0.2045143 
H     5.8465748   -0.4733726   -1.6809881 
