48
Energy =
C    -2.4040803    6.1273713   -1.6241912 
C    -1.5547160    5.4319084   -2.4220228 
C    -2.2210345    6.1397384   -0.2768617 
C    -1.1868783    5.4562038    0.2627639 
C    -0.3324508    4.7627653   -0.5304779 
C    -0.5146028    4.7386402   -1.8799606 
H    -1.7140194    5.4363548   -3.4967099 
H    -1.0529314    5.4684052    1.3387057 
H     0.4902348    4.2156607   -0.0749202 
H    -3.2293934    6.6745899   -2.0667166 
C     0.4382831    3.9661023   -2.7717921 
C     0.0267475    2.4930142   -3.0512775 
H     1.4589545    3.9863002   -2.3227174 
H     0.5454687    4.4959893   -3.7429007 
C     0.2298287    1.5700532   -1.8518798 
O    -3.0774608    6.8481233    0.5726133 
H    -3.8322744    7.3253586    0.0923713 
O    -0.3865936    1.8587059   -0.6418191 
N    -1.3460805    2.3991108   -3.5711617 
H     0.7154952    2.1123572   -3.8401124 
H    -2.0233976    2.6398824   -2.8063226 
H    -1.4823193    3.0874003   -4.3469486 
N     0.7467154    0.2401485   -2.0286398 
C     2.2131319    0.1485124   -2.2980849 
H     0.1346056   -0.2291499   -2.7323359 
C     2.9987764    1.4513919   -2.0413494 
O     3.1863398    2.3857061   -3.0507714 
O     3.4154722    1.7992109   -0.7591695 
H     3.0046128    1.2041335   -0.0533234 
C     2.5073469   -0.6116619   -3.6432472 
H     2.6131004   -0.5233505   -1.5068048 
C     3.3380809    0.1336851   -4.6662218 
H     1.5724358   -0.9411767   -4.1427579 
H     3.0317755   -1.5666864   -3.4161063 
C     4.6727753    0.2777620   -4.6692298 
C     5.5981841   -0.1698198   -3.7821004 
C     6.9105604    0.1203862   -4.0140127 
C     7.2737875    0.8445022   -5.1160270 
C     6.3261031    1.2847654   -5.9919842 
C     5.0344103    0.9855145   -5.7405111 
H     5.3099883   -0.7324002   -2.8995928 
H     7.6707738   -0.2183220   -3.3144370 
H     8.3212400    1.0762953   -5.2908367 
H     6.5961516    1.8650813   -6.8673963 
N     3.9013569    1.3473869   -6.5181516 
C     2.8431826    0.7620323   -5.7480492 
H     3.8571471    1.8837551   -7.4142184 
H     1.7897128    0.8224067   -6.0081024 
