48
Energy =
C     0.8016382   -0.2277187    2.3054239 
C     0.3842708   -0.7367434    1.1189901 
C     1.6641226   -0.9313566    3.0846818 
C     2.0969727   -2.1439336    2.6742976 
C     1.6877946   -2.6546370    1.4856201 
C     0.8485732   -1.9415206    0.6826860 
H    -0.3223662   -0.1674331    0.5199250 
H     2.7703472   -2.7029866    3.3149154 
H     2.0277784   -3.6436995    1.1913276 
H     0.4377343    0.7405464    2.6322728 
C     0.3688466   -2.5192219   -0.6373702 
C     1.2910240   -2.3058128   -1.8713666 
H    -0.6399088   -2.1111720   -0.8748256 
H     0.2102354   -3.6128657   -0.5083689 
C     1.4128983   -0.8625791   -2.3900597 
O     2.1124639   -0.4383121    4.3136512 
H     1.7716153    0.4917599    4.5326518 
O     0.7506020   -0.5549760   -3.5734626 
N     2.5833159   -3.0107446   -1.7455760 
H     0.7423932   -2.7983381   -2.7131311 
H     2.9703975   -2.9392689   -0.7808230 
H     2.4288802   -4.0350730   -1.9065469 
N     2.0566202    0.2266890   -1.6963360 
C     3.4750825    0.0074137   -1.3455001 
H     1.4972117    0.4577527   -0.8525098 
C     4.0357610    1.1784317   -0.5409827 
O     3.4367794    2.4302921   -0.6090574 
O     5.2025315    1.0447591    0.2122046 
H     5.5454794    0.0956530    0.2271728 
C     4.3317684   -0.2644754   -2.6111823 
H     3.5547834   -0.8535312   -0.6562098 
C     4.1405691    0.7692554   -3.7105079 
H     4.0880809   -1.2805314   -2.9861598 
H     5.4095523   -0.3012691   -2.3412242 
C     3.6566996    0.5582791   -4.9497056 
C     3.1942869   -0.5814826   -5.5312601 
C     2.7629758   -0.5234718   -6.8235091 
C     2.8027566    0.6552076   -7.5134932 
C     3.2729957    1.7848622   -6.9148169 
C     3.6910236    1.7045089   -5.6342896 
H     3.1417349   -1.5214677   -4.9930188 
H     2.3768924   -1.4189698   -7.3041448 
H     2.4531301    0.6926530   -8.5418724 
H     3.3105515    2.7283912   -7.4480395 
N     4.2236811    2.7560687   -4.8441140 
C     4.4932342    2.0665718   -3.6159929 
H     4.3903027    3.7568383   -5.0980273 
H     4.9320022    2.5359994   -2.7366774 
