48
Energy =
C     1.5447491   -3.3921249    1.2252538 
C     1.6443203   -2.6223138    0.1120248 
C     1.3793194   -2.8128020    2.4445219 
C     1.3130238   -1.4654914    2.5405187 
C     1.4122307   -0.6907123    1.4307260 
C     1.5770386   -1.2661249    0.2081348 
H     1.7765026   -3.1003955   -0.8551988 
H     1.1798800   -1.0161484    3.5183936 
H     1.3600350    0.3903132    1.5302073 
H     1.5984274   -4.4719856    1.1375483 
C     1.7097451   -0.4099440   -1.0311799 
C     3.1768387   -0.2969389   -1.5096625 
H     1.2917306    0.6082570   -0.8589241 
H     1.0824075   -0.8538808   -1.8372985 
C     3.2420610    0.3375497   -2.8909743 
O     1.2775969   -3.5766569    3.6117969 
H     1.3234291   -4.5771934    3.4527460 
O     2.6588589    1.5799533   -3.1072196 
N     3.9794206    0.4785381   -0.5500726 
H     3.6086931   -1.3181270   -1.6027585 
H     3.5613812    1.4338645   -0.4360329 
H     3.9598332    0.0152869    0.3881833 
N     3.9219544   -0.2997215   -3.9844546 
C     5.3967832   -0.1533533   -3.9003043 
H     3.5892063   -1.2865681   -4.0767996 
C     5.9156838    0.5127192   -5.1752498 
O     6.7376968   -0.1819814   -6.0571978 
O     5.5754076    1.8267860   -5.4842340 
H     4.8362272    2.1564243   -4.8771456 
C     6.0594871   -1.5296560   -3.6262932 
H     5.6925710    0.5472577   -3.0803118 
C     7.5177269   -1.3916301   -3.2352641 
H     5.9674055   -2.1738249   -4.5311700 
H     5.5232554   -2.0574432   -2.8104510 
C     7.9946962   -1.0964920   -2.0156775 
C     7.3303516   -0.8734544   -0.8532963 
C     8.0565016   -0.5805561    0.2632721 
C     9.4211494   -0.5155338    0.2019028 
C    10.0674121   -0.7429451   -0.9769597 
C     9.3261291   -1.0319951   -2.0670432 
H     6.2481116   -0.9222480   -0.8046199 
H     7.5473413   -0.3950052    1.2061093 
H     9.9931126   -0.2788877    1.0957857 
H    11.1489263   -0.6915363   -1.0441039 
N     9.7969873   -1.2906441   -3.3814803 
C     8.5606855   -1.5085882   -4.0778106 
H    10.7786654   -1.3229608   -3.7414988 
H     8.4792441   -1.7093502   -5.1462754 
