48
Energy =
C     0.0285441    5.3857195    0.6396209 
C     0.6094030    4.3684274    1.3249909 
C    -0.6885024    5.1300470   -0.4874414 
C    -0.8164207    3.8559959   -0.9225940 
C    -0.2383589    2.8350709   -0.2409921 
C     0.4806726    3.0850537    0.8883933 
H     1.1780773    4.5894298    2.2245297 
H    -1.3859292    3.6638715   -1.8256510 
H    -0.3498814    1.8177508   -0.6110221 
H     0.1370035    6.4044356    0.9955371 
C     1.1360910    1.9462433    1.6437701 
C     2.5319208    1.5555047    1.0997581 
H     0.4715389    1.0526597    1.5995575 
H     1.2187870    2.2003654    2.7232867 
C     2.4905536    1.1271665   -0.3650577 
O    -1.3048721    6.1549450   -1.2132610 
H    -1.1379635    7.0836932   -0.8420241 
O     1.8451784   -0.0603440   -0.6879701 
N     3.5239437    2.6132975    1.3693817 
H     2.8527760    0.6332349    1.6398676 
H     3.2123775    3.5299499    0.9697476 
H     3.6109479    2.7515933    2.4041318 
N     2.8593515    2.0111933   -1.4356339 
C     4.3248796    2.0043309   -1.6641256 
H     2.4971938    2.9634727   -1.2036545 
C     4.8393721    3.3306199   -2.2208102 
O     3.9608414    4.2483485   -2.7823597 
O     6.1999138    3.6424334   -2.1972220 
H     6.7522306    2.9263378   -1.7495906 
C     4.6822735    0.8270577   -2.6001523 
H     4.8778264    1.8722864   -0.7046213 
C     3.9283075    0.8872212   -3.9141485 
H     4.4274484   -0.1287690   -2.0891888 
H     5.7769517    0.7940157   -2.7877203 
C     4.3156906    1.4936076   -5.0487360 
C     5.4555777    2.1766703   -5.3297045 
C     5.6018080    2.7104086   -6.5763543 
C     4.6191402    2.5547061   -7.5142574 
C     3.4828120    1.8659622   -7.2102811 
C     3.3610668    1.3477014   -5.9701782 
H     6.2335805    2.3137312   -4.5854543 
H     6.5009754    3.2705109   -6.8215103 
H     4.7408383    2.9881197   -8.5036813 
H     2.6904662    1.7389234   -7.9399724 
N     2.2614048    0.6118905   -5.4535361 
C     2.7066968    0.3604191   -4.1134804 
H     1.3728061    0.3249817   -5.9241808 
H     2.1214264   -0.1553239   -3.3532632 
