48
Energy =
C    -0.2116028   -1.0164630    2.1316324 
C    -0.5838347   -0.0607075    1.2430599 
C     0.8354766   -0.7985003    2.9713897 
C     1.5012661    0.3771516    2.9178778 
C     1.1331071    1.3362686    2.0315852 
C     0.0890382    1.1217506    1.1841372 
H    -1.4198981   -0.2512959    0.5752145 
H     2.3344782    0.5390353    3.5928537 
H     1.6853652    2.2720058    1.9987411 
H    -0.7523604   -1.9560068    2.1673129 
C    -0.3055154    2.1804318    0.1736135 
C     0.4866018    2.0994520   -1.1544382 
H    -0.1534927    3.1892619    0.6195313 
H    -1.3935458    2.1123718   -0.0440632 
C     1.9832318    2.2748080   -0.9463685 
O     1.2480196   -1.7641584    3.8950878 
H     0.6932730   -2.6128634    3.8784003 
O     2.4572687    3.4187662   -0.8837065 
N     0.1511144    0.8737456   -1.9008545 
H     0.1937821    2.9777276   -1.7798396 
H     0.3549165    0.0283243   -1.3210810 
H    -0.8744391    0.8646445   -2.1095203 
N     2.8649857    1.1536484   -0.7558967 
C     4.2519392    1.3840729   -1.2014457 
H     2.5181146    0.2504944   -0.3639262 
C     4.4690363    2.8702823   -1.4892217 
O     5.6280575    3.3022764   -2.1266710 
O     3.6147286    3.6961549   -1.1326852 
H     3.2007917    3.5886279   -0.2307190 
C     4.5410077    0.5162238   -2.4424828 
H     4.9541642    1.1223159   -0.3805976 
C     4.4877686   -0.9587376   -2.1123658 
H     5.5526382    0.7554098   -2.8427337 
H     3.8199458    0.7717546   -3.2492790 
C     3.4584040   -1.7982224   -2.3107148 
C     2.2451209   -1.5732323   -2.8768502 
C     1.3580381   -2.6068802   -2.9433338 
C     1.6930669   -3.8372509   -2.4496470 
C     2.9178419   -4.0408464   -1.8863583 
C     3.7782032   -3.0022960   -1.8334962 
H     1.9734264   -0.5964671   -3.2662210 
H     0.3796387   -2.4495686   -3.3912160 
H     0.9807370   -4.6564656   -2.5063314 
H     3.1992440   -5.0095882   -1.4876778 
N     5.0861730   -2.9986153   -1.2796430 
C     5.4729791   -1.6356644   -1.4969139 
H     5.6193111   -3.7797759   -0.8332430 
H     6.4249318   -1.2096237   -1.1871900 
