48
 energy: -9.286552627208 gnorm: 0.000568428464 xtb: 6.6.0 (2ccbbd7)
C           -3.73219575359044       -1.12994627027643       -0.11508679181066
C           -2.50108869274511       -0.94052997038757       -0.69706408987572
C           -3.83426373308706       -1.63222538846344        1.18262979110428
C           -2.65816976774169       -1.93173407005140        1.86955377096571
C           -1.43123231404794       -1.73792977417944        1.28143118988197
C           -1.33397933103696       -1.24649544101396       -0.01194914385710
H           -2.43395028266604       -0.54919670843636       -1.69767925006488
H           -2.73673192571985       -2.31674408513911        2.87049130377366
H           -0.52999325710094       -1.96730715075011        1.82371799658427
H           -4.63045427629838       -0.89140395822300       -0.65580378616239
C            0.00582844125989       -1.00699406881874       -0.63340434417880
C            0.63696035645434        0.32168958223120       -0.21153378511926
H           -0.08048570127661       -1.02890272159812       -1.72354382846722
H            0.68456571585206       -1.82750656647941       -0.37685473949838
C            2.04739934856009        0.42560229447400       -0.75093200590009
O           -5.05563029632523       -1.83540124672267        1.79620449214643
H           -5.78351821544025       -1.58227844456618        1.18829864363904
O            2.78387167976503       -0.53283154103732       -0.63648423523199
N           -0.17323988095791        1.46306572900231       -0.61733918529851
H            0.71323219097016        0.34627482261186        0.88669760588495
H           -0.26125821953010        1.47333900752840       -1.62501326858942
H           -1.10727360949073        1.38631854200283       -0.23672732890296
N            2.42310455004560        1.61136680191580       -1.34095228959262
C            3.80966491704926        1.91974093283285       -1.69191877214609
H            1.82372763706227        2.43873204923748       -1.24560767138063
C            3.82608125168652        3.11886901625513       -2.61821665108536
O            4.65472958627325        3.98386483695245       -2.43360246804115
O            2.90823695696089        3.10604233878555       -3.61364001764159
H            2.33868216941425        2.30419233417743       -3.54292442629806
C            4.53615583223764        0.72607125814651       -2.31681910634701
H            4.32386460874338        2.20024872240647       -0.76170132516828
C            6.01199223350950        0.88178231252458       -2.48565544721406
H            4.08072146738556        0.49809219260491       -3.28438587910405
H            4.35970870352786       -0.14915227809913       -1.68535588467936
C            6.95449230973627       -0.18867796418920       -2.49965194278868
C            6.82260360140477       -1.57735124303461       -2.32769513924502
C            7.94589405366923       -2.35452813173172       -2.39079737193107
C            9.21017570444328       -1.78817404866437       -2.62229581684668
C            9.36215954661565       -0.43917664277778       -2.79173975754273
C            8.22449621687142        0.37528999193278       -2.72966833367644
H            5.85315671488581       -2.00575277052083       -2.14492554559325
H            7.86248362543321       -3.42054940414501       -2.25885787569403
H           10.07475281098542       -2.42965801426888       -2.66539575390998
H           10.32625452886330        0.00306251658082       -2.96788834508780
N            8.05450810942184        1.74253331874289       -2.85580116143171
C            6.72260979839520        2.03463868575726       -2.71040202336289
H            8.80426829445187        2.41321284264290       -3.03453685838551
H            6.30535831520850        3.02752271316522       -2.74288369828090
