48
Energy =
C    -1.2410910   -1.1622297   -2.5970610 
C    -0.3633356   -1.8541474   -1.8280085 
C    -1.9009000   -0.0894803   -2.0841782 
C    -1.6762136    0.2843388   -0.8040148 
C    -0.7984293   -0.4032472   -0.0305568 
C    -0.1390756   -1.4811083   -0.5378652 
H     0.1629348   -2.7044167   -2.2541821 
H    -2.2052242    1.1450170   -0.4090357 
H    -0.6205984   -0.0784233    0.9919478 
H    -1.4111722   -1.4674259   -3.6239625 
C     0.8788347   -2.2224509    0.3015988 
C     2.3167607   -1.7598674   -0.0173857 
H     0.7838394   -3.3132519    0.1064270 
H     0.6722888   -2.0810311    1.3870352 
C     2.5225849   -0.2916237    0.3240890 
O    -2.8113340    0.6455361   -2.8495322 
H    -2.9195153    0.3066399   -3.7991887 
O     2.5293060    0.1087554    1.6577571 
N     3.2867982   -2.6093149    0.6910706 
H     2.4984088   -1.8663661   -1.1081861 
H     3.1379040   -2.5336455    1.7273323 
H     3.1488889   -3.6126311    0.4246801 
N     2.3509371    0.7133471   -0.6873493 
C     3.6488401    1.3652256   -0.9972633 
H     1.7007706    1.4086689   -0.2491319 
C     3.4950737    2.8353312   -1.3923667 
O     4.4867510    3.7361492   -1.0261342 
O     2.4127958    3.3005517   -2.1393143 
H     1.8382706    2.5390776   -2.4723937 
C     4.3864745    0.5534481   -2.0889596 
H     4.3038134    1.4058014   -0.0890523 
C     3.6990207    0.6230987   -3.4385609 
H     4.4718297   -0.5099247   -1.7751754 
H     5.4334630    0.9169488   -2.1798034 
C     3.9457194    1.5014023   -4.4252696 
C     4.8518190    2.5115437   -4.4882058 
C     4.8859516    3.2837356   -5.6119869 
C     4.0230215    3.0400472   -6.6442907 
C     3.1178974    2.0245846   -6.5568745 
C     3.1048771    1.2738461   -5.4354571 
H     5.5259535    2.7219264   -3.6633518 
H     5.5963297    4.1038514   -5.6818353 
H     4.0522666    3.6641277   -7.5336421 
H     2.4188978    1.8242886   -7.3613303 
N     2.2319202    0.1950869   -5.1360702 
C     2.6789757   -0.1639769   -3.8231668 
H     1.4710249   -0.2214440   -5.7187806 
H     2.2302359   -0.9453436   -3.2205281 
