48
Energy =
C    -1.3825073   -2.3859142    2.0884771 
C    -0.4716274   -1.4694055    2.5027153 
C    -2.2324218   -2.0922289    1.0683035 
C    -2.1700439   -0.8790672    0.4744314 
C    -1.2624524    0.0416416    0.8851772 
C    -0.4060491   -0.2488238    1.9029059 
H     0.2102738   -1.7245588    3.3098157 
H    -2.8544557   -0.6568293   -0.3366138 
H    -1.2198110    1.0076354    0.3882915 
H    -1.4240394   -3.3564243    2.5708438 
C     0.6470947    0.7564413    2.3162452 
C     1.7988649    0.8270228    1.2860944 
H     1.0582637    0.5269621    3.3249291 
H     0.1711127    1.7586084    2.4117313 
C     2.7215931    2.0125743    1.5269787 
O    -3.1730970   -3.0187636    0.6070482 
H    -3.1765637   -3.8926935    1.1220417 
O     2.7307104    2.6519547    2.7595735 
N     2.5630408   -0.4323531    1.2729021 
H     1.3490006    1.0013839    0.2875355 
H     2.9070391   -0.6399892    2.2414595 
H     1.9377671   -1.2206456    0.9848359 
N     3.3928743    2.6501267    0.4328311 
C     4.4672942    1.9007890   -0.2457332 
H     3.0195087    3.5604815    0.0844417 
C     5.8371963    2.5142611    0.0487189 
O     6.7978227    2.5677403   -0.9564211 
O     6.1978413    2.9397480    1.3268373 
H     5.4290563    2.8712549    1.9816592 
C     4.1768203    1.8535985   -1.7663143 
H     4.5326156    0.8597428    0.1393795 
C     2.8469105    1.2057800   -2.0800697 
H     4.9842143    1.2961362   -2.2910808 
H     4.2007978    2.8888815   -2.1763213 
C     2.5622409   -0.1060263   -2.0491123 
C     3.3666450   -1.1642799   -1.7757957 
C     2.8146256   -2.4128473   -1.7667838 
C     1.4814001   -2.5798674   -2.0234887 
C     0.6933488   -1.5013678   -2.2958128 
C     1.2647177   -0.2790700   -2.3081875 
H     4.4206817   -1.0249991   -1.5525623 
H     3.4342312   -3.2793963   -1.5447201 
H     1.0449940   -3.5761760   -2.0064414 
H    -0.3677459   -1.6166883   -2.4929019 
N     0.6223004    0.9668155   -2.5382320 
C     1.7172811    1.8769467   -2.3675177 
H    -0.3814159    1.1652010   -2.7572003 
H     1.6322841    2.9598961   -2.4304606 
