48
Energy =
C     3.9737800   -2.9795710   -0.8131435 
C     2.8650785   -2.4165529   -0.2600511 
C     3.9087769   -3.5343154   -2.0576467 
C     2.7511083   -3.5143813   -2.7342189 
C     1.6540409   -2.9554642   -2.2027007 
C     1.6914455   -2.4058629   -0.9545770 
H     2.9141133   -1.9868878    0.7377838 
H     2.6846288   -3.9611996   -3.7054653 
H     0.7632983   -2.9697720   -2.8135046 
H     4.9071222   -2.9907360   -0.2599995 
C     0.4439206   -1.7956928   -0.3514458 
C     0.2772646   -0.2906491   -0.6812735 
H     0.4435495   -1.9443041    0.7505712 
H    -0.4439450   -2.3517879   -0.7270593 
C     1.3805044    0.5588123   -0.0707318 
O     5.0125838   -4.1253804   -2.6732279 
H     5.8357794   -4.1498882   -2.0815787 
O     1.8682148    0.2639082    1.1992406 
N     0.1542909   -0.0737826   -2.1354770 
H    -0.6616015    0.0564875   -0.1972074 
H     1.0826115   -0.2402402   -2.5870964 
H    -0.4741362   -0.8086981   -2.5470578 
N     1.7943467    1.7808769   -0.6908659 
C     3.1897334    1.8528916   -1.1503162 
H     1.1125771    2.5659730   -0.7942768 
C     3.9880204    2.8155823   -0.2774036 
O     4.1804045    4.1333900   -0.6809786 
O     4.5253319    2.4113605    0.9440879 
H     4.1737574    1.5075476    1.2307563 
C     3.1945127    2.2542650   -2.6411526 
H     3.6861758    0.8579092   -1.0570492 
C     4.5660644    2.1037813   -3.2605560 
H     2.8359877    3.3023401   -2.7555295 
H     2.4687637    1.6246831   -3.2007992 
C     5.1026506    0.9779676   -3.7560696 
C     4.5741630   -0.2690618   -3.8547111 
C     5.3364290   -1.2512248   -4.4155885 
C     6.6025099   -0.9799298   -4.8543901 
C     7.1140655    0.2781377   -4.7394099 
C     6.3386623    1.2351558   -4.1877153 
H     3.5704635   -0.4933485   -3.5018498 
H     4.9362960   -2.2568333   -4.5142732 
H     7.2024840   -1.7721262   -5.2957478 
H     8.1171665    0.5101981   -5.0814342 
N     6.6770529    2.5978758   -3.9755522 
C     5.4750647    3.0894198   -3.3678841 
H     7.5601711    3.1100537   -4.2030714 
H     5.3302920    4.1146954   -3.0293704 
