48
Energy =
C    -3.6361761    3.1203714   -1.9780400 
C    -2.3031999    2.8826389   -2.0714166 
C    -4.5272592    2.2280259   -2.4870981 
C    -4.0772628    1.1022574   -3.0862891 
C    -2.7457035    0.8593780   -3.1826756 
C    -1.8495340    1.7515357   -2.6787052 
H    -1.6042067    3.6032378   -1.6549390 
H    -4.7976431    0.3972717   -3.4864754 
H    -2.4040021   -0.0534195   -3.6643086 
H    -3.9877862    4.0249886   -1.4937954 
C    -0.3662234    1.4705227   -2.7686519 
C     0.0964379    0.4587572   -1.6951400 
H     0.2210534    2.4123541   -2.6822752 
H    -0.1406891    1.0656693   -3.7816980 
C     1.5330992    0.0342027   -1.9401303 
O    -5.9071253    2.4421027   -2.4062020 
H    -6.1635269    3.3094565   -1.9475451 
O     1.7374478   -1.1882638   -2.5635255 
N    -0.0778929    1.0121925   -0.3384115 
H    -0.5035447   -0.4790582   -1.7928775 
H     0.2190846    2.0162038   -0.3072076 
H    -1.0960528    0.9936637   -0.0897229 
N     2.5965916    0.9918109   -1.7228029 
C     4.0257430    0.7478206   -2.0885620 
H     2.5328625    1.2877123   -0.7231288 
C     4.5096509    1.9172506   -2.9388338 
O     5.6705469    2.5899910   -2.5778103 
O     3.8428701    2.3046187   -4.1020377 
H     3.0094654    1.7535907   -4.2470764 
C     4.3703706   -0.5804359   -2.8129035 
H     4.6669571    0.8062160   -1.1825378 
C     4.3843186   -1.9047842   -2.0430561 
H     5.4028606   -0.4758766   -3.2191222 
H     3.7280904   -0.6859747   -3.7148956 
C     4.1453927   -2.2215082   -0.7424946 
C     3.7944393   -1.4582858    0.3313372 
C     3.6145413   -2.0605453    1.5411956 
C     3.7845145   -3.4064098    1.6754383 
C     4.1344176   -4.1602653    0.6001883 
C     4.3064284   -3.5447918   -0.5881302 
H     3.6428526   -0.3993583    0.2733236 
H     3.3292225   -1.4642818    2.4049307 
H     3.6368475   -3.8787236    2.6435471 
H     4.2712760   -5.2328086    0.6888027 
N     4.6681968   -4.1702885   -1.8057737 
C     4.6922282   -3.0477795   -2.6881089 
H     4.8701383   -5.1777023   -2.0019486 
H     4.9255297   -3.1165723   -3.7484541 
