48
Energy =
C     0.6909828    3.6458383   -1.8342588 
C     1.3628056    3.2841515   -0.7153527 
C    -0.6661516    3.5771557   -1.8686326 
C    -1.3389471    3.1420279   -0.7781521 
C    -0.6690388    2.7676435    0.3423610 
C     0.6901063    2.8254247    0.3756196 
H     2.4538688    3.3388542   -0.7149289 
H    -2.4192169    3.0878981   -0.8186424 
H    -1.2238462    2.4116294    1.2044920 
H     1.2563655    3.9768843   -2.6991748 
C     1.4536993    2.3896099    1.6085857 
C     1.2743941    0.8856855    1.9507716 
H     1.1230526    3.0103379    2.4660933 
H     2.5425931    2.6006540    1.4778871 
C     1.5684263   -0.0699059    0.7927354 
O    -1.3935407    3.9507444   -3.0066404 
H    -0.7964748    4.2044493   -3.7862569 
O     0.6826972   -1.1227669    0.5657229 
N     2.0827746    0.5500861    3.1353155 
H     0.2068203    0.7046917    2.2030503 
H     3.0926119    0.7231150    2.9111373 
H     1.8411123    1.1996667    3.9174972 
N     2.4690832    0.2825472   -0.2611577 
C     3.9175160    0.0706100   -0.0971007 
H     2.0716925    0.6586163   -1.1497872 
C     4.6110014    1.3002169    0.4294642 
O     5.1688368    1.2843206    1.7015796 
O     4.6913582    2.4554484   -0.3138034 
H     4.3290292    2.2121659   -1.3977929 
C     4.5149589   -0.4102147   -1.4470308 
H     4.1166991   -0.6825823    0.6987338 
C     4.0825445    0.4000850   -2.6592015 
H     4.2257819   -1.4698579   -1.5690340 
H     5.6258939   -0.3628691   -1.3921085 
C     3.6990930   -0.1093234   -3.8410485 
C     3.6951054   -1.4017554   -4.2705445 
C     3.2433290   -1.6755062   -5.5285266 
C     2.8064210   -0.6640383   -6.3340851 
C     2.8236137    0.6209559   -5.8821694 
C     3.2768124    0.8620541   -4.6292380 
H     4.0522032   -2.2045419   -3.6406486 
H     3.2344076   -2.7003857   -5.8869614 
H     2.4468952   -0.8814202   -7.3353678 
H     2.4841873    1.4399872   -6.5044919 
N     3.3610187    2.1294906   -4.0079075 
C     3.9167345    1.9249319   -2.6500560 
H     3.0383540    3.0301100   -4.4235693 
H     3.8324892    3.0422385   -2.6015120 
