48
Energy =
C     2.0535877    4.1906322    0.7619377 
C     1.6416868    3.5969806   -0.3867310 
C     1.1480988    4.5380423    1.7141716 
C    -0.1651505    4.2877724    1.5097649 
C    -0.5818480    3.6923643    0.3636956 
C     0.3212758    3.3406602   -0.5923937 
H     2.3748739    3.3189447   -1.1392566 
H    -0.8781952    4.5696569    2.2764026 
H    -1.6407997    3.4988305    0.2185918 
H     3.1080075    4.3847868    0.9184730 
C    -0.1367979    2.6693403   -1.8708138 
C    -0.1379279    1.1203435   -1.8047685 
H     0.5066271    3.0013726   -2.7169579 
H    -1.1574781    3.0240502   -2.1341353 
C     1.2541030    0.5251127   -1.6418822 
O     1.5384446    5.1535402    2.9088677 
H     2.5382032    5.2994574    2.9941891 
O     1.9080153    0.5593337   -0.4136812 
N    -1.0582626    0.6301289   -0.7668162 
H    -0.5073859    0.7521550   -2.7887472 
H    -0.6667331    0.8585712    0.1791258 
H    -1.9819955    1.1133572   -0.8506300 
N     1.9528181    0.0023377   -2.7789656 
C     3.2142967    0.6777812   -3.1377681 
H     1.5433518   -0.8020852   -3.3040286 
C     2.9628869    1.9995238   -3.8430126 
O     3.6531894    3.1285611   -3.4211831 
O     2.0791307    2.1137536   -4.9153722 
H     1.6428087    1.2291491   -5.1272115 
C     4.0801168   -0.2587344   -4.0051970 
H     3.7817407    0.9403681   -2.2116048 
C     4.5894098   -1.4335456   -3.2005505 
H     4.9498743    0.2986276   -4.4209113 
H     3.4927715   -0.6195782   -4.8784846 
C     5.6317025   -1.4335735   -2.3551565 
C     6.4890763   -0.4315291   -2.0306041 
C     7.4746912   -0.6910619   -1.1241484 
C     7.5862943   -1.9326149   -0.5613073 
C     6.7124759   -2.9224778   -0.9015464 
C     5.7472802   -2.6417734   -1.8019537 
H     6.4000818    0.5563805   -2.4736931 
H     8.1735211    0.0942308   -0.8456091 
H     8.3726600   -2.1306770    0.1627730 
H     6.7839304   -3.9111342   -0.4611059 
N     4.7382877   -3.5192551   -2.2818201 
C     4.0265249   -2.6542987   -3.1776627 
H     4.5688879   -4.5243149   -2.0475439 
H     3.1427168   -2.9436686   -3.7409341 
