48
Energy =
C    -2.3607392    4.1438630   -4.5034708 
C    -1.4360463    3.2620242   -4.0459518 
C    -2.2253774    4.6973658   -5.7382124 
C    -1.1636082    4.3644897   -6.5069724 
C    -0.2358076    3.4833835   -6.0547197 
C    -0.3691633    2.9233236   -4.8211346 
H    -1.5562902    2.8294314   -3.0553782 
H    -1.0658074    4.8143757   -7.4890483 
H     0.6127899    3.2335749   -6.6865551 
H    -3.2080773    4.4062550   -3.8791959 
C     0.6693934    1.9541776   -4.3026935 
C     1.6590976    2.6351472   -3.3284251 
H     1.2253098    1.4891857   -5.1467570 
H     0.1488233    1.1173059   -3.7821522 
C     2.4710606    1.6097140   -2.5690319 
O    -3.1595398    5.6097604   -6.2392001 
H    -3.9254274    5.8072844   -5.6044380 
O     2.2811287    1.4686665   -1.2010463 
N     2.5388674    3.5735570   -4.0430817 
H     1.0914144    3.1867667   -2.5396006 
H     3.0158681    3.0875657   -4.8400225 
H     1.9722096    4.3553608   -4.4483459 
N     3.3742555    0.7257854   -3.2435255 
C     4.7756042    0.7358396   -2.7904840 
H     3.0390028    0.1373495   -4.0375807 
C     5.6436677    1.5705195   -3.7282983 
O     6.4164787    0.9499040   -4.7036768 
O     5.6740037    2.9614196   -3.6452404 
H     4.9818566    3.3031517   -2.9927442 
C     5.2804632   -0.7193985   -2.6745288 
H     4.8600412    1.2073308   -1.7836236 
C     4.5003704   -1.4990875   -1.6393783 
H     6.3601451   -0.7325552   -2.4063377 
H     5.1986084   -1.2230501   -3.6638562 
C     4.6410382   -1.4324261   -0.3063370 
C     5.5037164   -0.6986766    0.4427103 
C     5.4399295   -0.8110554    1.8007857 
C     4.5257278   -1.6456471    2.3826190 
C     3.6696731   -2.3727999    1.6095593 
C     3.7527647   -2.2444878    0.2686563 
H     6.2271566   -0.0335944   -0.0179732 
H     6.1165381   -0.2311716    2.4237571 
H     4.4781814   -1.7273123    3.4655240 
H     2.9361644   -3.0365070    2.0540567 
N     2.9596468   -2.9040248   -0.7082875 
C     3.5039817   -2.3580484   -1.9170222 
H     2.1938428   -3.6033612   -0.5775322 
H     3.1436808   -2.5947908   -2.9148508 
