48
Energy =
C    -1.1934186    4.2247350   -3.3442692 
C    -1.1857693    2.8907560   -3.5939279 
C    -0.0365442    4.8713821   -3.0429305 
C     1.1229361    4.1784256   -2.9964083 
C     1.1379738    2.8465965   -3.2545428 
C    -0.0197999    2.1857865   -3.5460551 
H    -2.1230287    2.3932924   -3.8297102 
H     2.0431339    4.6999010   -2.7434523 
H     2.0891107    2.3250349   -3.2126552 
H    -2.1283470    4.7740920   -3.3843358 
C    -0.0311982    0.6867904   -3.8148243 
C    -0.2287277   -0.2113080   -2.5550902 
H     0.9065744    0.3941104   -4.3383131 
H    -0.8469471    0.4574366   -4.5352713 
C     1.0725798   -0.5076081   -1.8310584 
O    -0.0130096    6.2437761   -2.7817072 
H    -0.9222328    6.6908345   -2.8193987 
O     1.4888656   -1.8298404   -1.6793848 
N    -1.2414655    0.3375758   -1.6390094 
H    -0.5882407   -1.2099027   -2.8993666 
H    -0.9139374    1.2395016   -1.2168623 
H    -2.1354383    0.5159722   -2.1524113 
N     1.9505827    0.5739191   -1.4866412 
C     3.3892524    0.2265121   -1.5476267 
H     1.7104044    0.8184045   -0.4975994 
C     4.2269498    1.4219931   -1.1084052 
O     4.0085787    2.6587088   -1.7071961 
O     5.2521544    1.3069507   -0.1732600 
H     5.3885536    0.3561348    0.1314092 
C     3.8095096   -0.1873527   -2.9848955 
H     3.5870112   -0.6079528   -0.8337539 
C     5.0300714   -1.0747235   -2.9461336 
H     4.0027187    0.7103623   -3.6127117 
H     3.0073156   -0.7482878   -3.5048384 
C     6.3160309   -0.6980312   -3.0177981 
C     6.8565249    0.5380092   -3.1702396 
C     8.2151482    0.6524063   -3.1942303 
C     9.0047740   -0.4566085   -3.0647517 
C     8.4397959   -1.6871852   -2.9054399 
C     7.0930724   -1.7750090   -2.8863306 
H     6.2333862    1.4247917   -3.2516908 
H     8.6704144    1.6336973   -3.3048025 
H    10.0868116   -0.3546234   -3.0782547 
H     9.0516928   -2.5749210   -2.7893209 
N     6.3113135   -2.9485543   -2.7032736 
C     4.9842057   -2.4018032   -2.7422763 
H     6.6281988   -3.9373745   -2.5761159 
H     4.0625629   -2.9653643   -2.5789472 
