48
Energy =
C     0.1178582    3.3731048    4.5763453 
C     0.4812259    3.3890692    3.2691179 
C    -0.3376001    2.2249897    5.1456009 
C    -0.4252160    1.0990956    4.4012889 
C    -0.0631140    1.1089858    3.0937709 
C     0.3887128    2.2568820    2.5174850 
H     0.8480897    4.3139671    2.8313249 
H    -0.7875643    0.1887163    4.8663035 
H    -0.1368963    0.1922489    2.5139356 
H     0.1942154    4.2808136    5.1654665 
C     0.8120280    2.2625415    1.0645665 
C     2.2307963    1.6754206    0.8755353 
H     0.7605766    3.2935944    0.6506250 
H     0.0807228    1.6601166    0.4779965 
C     2.5383974    1.4447987   -0.5983262 
O    -0.7191556    2.1745546    6.4903108 
H    -0.6259784    3.0586876    6.9784856 
O     2.4224238    0.1585553   -1.1128290 
N     3.2505402    2.5256104    1.5138732 
H     2.2620780    0.6624062    1.3423733 
H     3.1029449    3.5326045    1.2636669 
H     3.1645249    2.4511356    2.5552454 
N     2.8036631    2.5290682   -1.5086626 
C     4.2601942    2.7657340   -1.6298030 
H     2.3372032    3.3869207   -1.1352820 
C     4.5441810    4.1264414   -2.2441331 
O     4.8333742    5.2115144   -1.4214817 
O     4.4793199    4.3167134   -3.6296341 
H     4.1245655    3.3724882   -4.1783468 
C     4.9397690    1.6504068   -2.4591697 
H     4.7409767    2.7799549   -0.6255805 
C     4.1970243    1.3195499   -3.7501186 
H     5.0437108    0.7594828   -1.8097350 
H     5.9764162    1.9569290   -2.7202837 
C     3.9073510    0.0879234   -4.1968808 
C     4.1285040   -1.1198511   -3.6066866 
C     3.7530988   -2.2506226   -4.2666341 
C     3.1726873   -2.1680746   -5.4975758 
C     2.9648076   -0.9536948   -6.0736571 
C     3.3414286    0.1567961   -5.4004655 
H     4.5806778   -1.2099712   -2.6252877 
H     3.9138125   -3.2227165   -3.8080571 
H     2.8752273   -3.0736718   -6.0189495 
H     2.5070836   -0.8754957   -7.0545281 
N     3.2107910    1.4900817   -5.8704878 
C     3.7328703    2.3358004   -4.7914085 
H     2.8241015    1.7778340   -6.7998190 
H     3.5758000    3.3072031   -5.3115917 
