48
Energy =
C     0.5509763   -1.6041599    4.0525230 
C     0.7176616   -0.6189783    3.1341637 
C    -0.5198439   -2.4381254    3.9734632 
C    -1.4167748   -2.2796401    2.9742677 
C    -1.2533220   -1.2978340    2.0517204 
C    -0.1812708   -0.4608725    2.1246509 
H     1.5843976    0.0332287    3.2050873 
H    -2.2665545   -2.9505515    2.9231524 
H    -1.9850588   -1.1886613    1.2569810 
H     1.2796921   -1.7246281    4.8464221 
C     0.0065259    0.6350811    1.0945685 
C     0.9016974    0.2356809   -0.1074771 
H     0.4376618    1.5342309    1.5895106 
H    -0.9869096    0.9587992    0.7137276 
C     2.3710310    0.1013446    0.2609643 
O    -0.7226416   -3.4635269    4.9038611 
H     0.0012978   -3.5196989    5.6117373 
O     2.8245152   -0.9799115    1.0109703 
N     0.4000893   -0.9736658   -0.7820282 
H     0.8620999    1.0789917   -0.8350727 
H     0.5266090   -1.7951997   -0.1406231 
H    -0.6274940   -0.8785237   -0.9552850 
N     3.3300910    1.0032484   -0.3156285 
C     4.3595551    0.2724223   -1.0942761 
H     3.8007279    1.4436415    0.5107087 
C     5.4945401    1.2019281   -1.5190878 
O     6.8060298    0.7526047   -1.4430182 
O     5.2481203    2.4592527   -2.0716763 
H     4.2691762    2.6972040   -2.0109499 
C     3.7187247   -0.3949377   -2.3362852 
H     4.8343825   -0.5092692   -0.4512451 
C     4.6830345   -1.3384171   -3.0217790 
H     3.3487024    0.3802541   -3.0405225 
H     2.8227551   -0.9824349   -2.0375299 
C     5.4825709   -1.0658637   -4.0659497 
C     5.6300490    0.0817681   -4.7777490 
C     6.5336520    0.0991890   -5.7991171 
C     7.2690256   -1.0161112   -6.0906634 
C     7.1078306   -2.1553929   -5.3598426 
C     6.2072633   -2.1485989   -4.3549473 
H     5.0636784    0.9772553   -4.5401828 
H     6.6778194    1.0091361   -6.3769814 
H     7.9923693   -0.9911452   -6.9018226 
H     7.6907930   -3.0453307   -5.5712016 
N     5.9032342   -3.2166393   -3.4687988 
C     4.9151760   -2.6043264   -2.6293422 
H     6.2919014   -4.1876516   -3.4466301 
H     4.4438043   -3.0892379   -1.7745861 
