48
Energy =
C    -0.0370914   -3.7187912    1.8685106 
C     0.0221469   -2.3668394    1.7683663 
C     0.0845708   -4.4922289    0.7567807 
C     0.2685840   -3.9062174   -0.4482128 
C     0.3276451   -2.5545774   -0.5543500 
C     0.1977462   -1.7751370    0.5543881 
H    -0.0687382   -1.7609038    2.6658450 
H     0.3725295   -4.5338640   -1.3267040 
H     0.4860939   -2.1052966   -1.5308012 
H    -0.1791355   -4.1798020    2.8398721 
C     0.2871125   -0.2676573    0.4465818 
C     1.7032325    0.2494013    0.7826631 
H    -0.4477287    0.1921193    1.1435196 
H    -0.0081547    0.0683434   -0.5721465 
C     2.7515162   -0.2879148   -0.1764837 
O     0.0237665   -5.8878875    0.8246932 
H    -0.0991446   -6.2511740    1.7634051 
O     3.7256816   -1.1686792    0.2808315 
N     1.7029081    1.7224151    0.8039592 
H     2.0013418   -0.1260116    1.7906599 
H     1.2921375    2.0944397   -0.0869165 
H     1.0938623    2.0613711    1.5861127 
N     2.8236298    0.1786208   -1.5281207 
C     4.0499264    0.8985100   -1.9060494 
H     2.0117730    0.0540352   -2.1724471 
C     3.7159005    2.2370501   -2.5554041 
O     3.6566842    2.3478639   -3.9406742 
O     3.4352244    3.3654741   -1.7874366 
H     3.4162180    3.1529226   -0.7996111 
C     4.8785326   -0.0243309   -2.8212200 
H     4.6589432    1.1437453   -1.0021899 
C     6.2764696    0.5111086   -3.0301218 
H     4.3621994   -0.1541823   -3.7991404 
H     4.9353041   -1.0390295   -2.3664896 
C     7.3241370    0.3493446   -2.2079604 
C     7.4132282   -0.3322388   -1.0366818 
C     8.6067137   -0.3306525   -0.3766934 
C     9.6787358    0.3473351   -0.8885687 
C     9.5631177    1.0297853   -2.0634428 
C     8.3730325    1.0104341   -2.6995458 
H     6.5600522   -0.8654900   -0.6228757 
H     8.7040735   -0.8690985    0.5632689 
H    10.6256421    0.3457937   -0.3544812 
H    10.4013220    1.5787540   -2.4790499 
N     8.0357615    1.6681673   -3.9130650 
C     6.6547842    1.3009703   -4.0505296 
H     8.6344628    2.2568735   -4.5368183 
H     5.9935965    1.6495540   -4.8451184 
