48
Energy =
C    -1.4999268    4.7746103   -0.0712784 
C    -1.1920593    3.4559048   -0.1578875 
C    -0.9595803    5.6614296   -0.9465114 
C    -0.1254174    5.2205534   -1.9123881 
C     0.1810503    3.9019327   -2.0077365 
C    -0.3166878    3.0080075   -1.1031788 
H    -1.6728983    2.7665610    0.5265410 
H     0.2848488    5.9401089   -2.6131885 
H     0.8221264    3.5732138   -2.8230971 
H    -2.1903227    5.1157504    0.6928645 
C    -0.0001910    1.5212327   -1.2316440 
C     0.8677879    0.8633229   -0.1061510 
H     0.4793354    1.3146363   -2.2130332 
H    -0.9710584    0.9794895   -1.2768220 
C     2.3677605    1.1744595   -0.0754173 
O    -1.2573406    7.0264660   -0.8867692 
H    -1.8781202    7.2810038   -0.1257324 
O     3.1784999    0.3889745    0.7413804 
N     0.2673629    1.0448743    1.2226673 
H     0.8554715   -0.2302242   -0.3186692 
H     0.3673330    2.0398110    1.5330921 
H    -0.7432741    0.7764797    1.2105052 
N     2.9940742    2.0648105   -1.0124491 
C     4.4379581    1.9160407   -1.2833237 
H     2.4302499    2.7562339   -1.5350364 
C     5.0232729    3.1717252   -1.9256584 
O     4.2143949    4.0192581   -2.6767582 
O     6.3883805    3.4515254   -1.8558063 
H     6.8898933    2.7797885   -1.2943282 
C     4.6973532    0.6594040   -2.1494214 
H     4.9786852    1.8039791   -0.3160503 
C     3.8371041    0.6125431   -3.3959462 
H     4.4922125   -0.2445511   -1.5331760 
H     5.7714353    0.5984137   -2.4298945 
C     4.0828533    1.1945843   -4.5819539 
C     5.1466185    1.9332558   -4.9909868 
C     5.1503296    2.4152053   -6.2668515 
C     4.1065833    2.1493715   -7.1090384 
C     3.0519232    1.4001495   -6.6798957 
C     3.0691640    0.9381462   -5.4119630 
H     5.9774059    2.1499674   -4.3265480 
H     5.9863410    3.0188040   -6.6124726 
H     4.1170620    2.5388614   -8.1239350 
H     2.2169028    1.1785870   -7.3356964 
N     2.0788362    0.1410855   -4.7775927 
C     2.6562119   -0.0253578   -3.4765104 
H     1.1738580   -0.2185341   -5.1591347 
H     2.1995087   -0.5917712   -2.6688842 
