48
Energy =
C    -2.3199038   -1.2571977    2.4860654 
C    -1.1105375   -1.0466036    1.9072384 
C    -3.4244455   -1.4405348    1.7142498 
C    -3.3105756   -1.4109501    0.3669534 
C    -2.1038149   -1.2007999   -0.2173074 
C    -0.9945397   -1.0210102    0.5509756 
H    -0.2361909   -0.8990047    2.5366594 
H    -4.1993410   -1.5561837   -0.2372906 
H    -2.0348794   -1.1749112   -1.3015153 
H    -2.4015444   -1.2774401    3.5674443 
C     0.3511645   -0.7684619   -0.0915168 
C     0.7298739    0.7322544   -0.0810521 
H     0.3704544   -1.1554494   -1.1343753 
H     1.1221864   -1.3548849    0.4599681 
C     2.1860497    0.9250966   -0.4847628 
O    -4.6854653   -1.6589921    2.2785544 
H    -4.6871980   -1.6669467    3.2926480 
O     3.1704600    0.2423035    0.2271103 
N    -0.1950689    1.5019578   -0.9343804 
H     0.6796074    1.1195225    0.9641191 
H    -0.2957600    1.0409854   -1.8699761 
H    -1.1459354    1.5222234   -0.4941967 
N     2.5700925    1.8229542   -1.5416253 
C     3.9609811    1.7617220   -2.0304174 
H     1.8672716    2.4947200   -1.9300807 
C     4.3623979    3.0611004   -2.7228015 
O     3.4679710    3.6834509   -3.5856662 
O     5.6430747    3.6001894   -2.5915502 
H     6.2460015    3.0337627   -2.0133835 
C     4.0936481    0.5605568   -2.9879960 
H     4.6514235    1.6382881   -1.1641738 
C     5.5368414    0.3059760   -3.3586004 
H     3.4845828    0.7424649   -3.9028935 
H     3.6734028   -0.3518901   -2.5107776 
C     6.4423284   -0.3670620   -2.6323945 
C     6.3034260   -1.0004967   -1.4395369 
C     7.3991968   -1.6032944   -0.8954035 
C     8.6038796   -1.5604781   -1.5417812 
C     8.7203110   -0.9123185   -2.7358313 
C     7.6208263   -0.3270128   -3.2553059 
H     5.3493250   -1.0271010   -0.9190963 
H     7.3141844   -2.1163579    0.0597047 
H     9.4732819   -2.0404723   -1.0994886 
H     9.6700195   -0.8612165   -3.2573962 
N     7.5312967    0.4154349   -4.4631197 
C     6.1489518    0.7986639   -4.4496902 
H     8.2725945    0.6228721   -5.1711330 
H     5.6773843    1.4416533   -5.1924431 
