48
Energy =
C     0.2700304   -2.3669308    1.3805086 
C    -0.3399005   -1.6054989    0.4364540 
C     1.0780460   -3.3972119    1.0114334 
C     1.2627993   -3.6629667   -0.3006602 
C     0.6576669   -2.9049606   -1.2486135 
C    -0.1494828   -1.8697247   -0.8854246 
H    -0.9701167   -0.7757805    0.7455586 
H     1.9102103   -4.4842649   -0.5824463 
H     0.8423944   -3.1191735   -2.2982583 
H     0.1168881   -2.1442441    2.4308609 
C    -0.7701529   -0.9777600   -1.9406032 
C    -0.0006276    0.3555781   -2.0990682 
H    -1.8261381   -0.7665738   -1.6641473 
H    -0.8001686   -1.5029385   -2.9219219 
C     1.4793823    0.1329839   -2.3822720 
O     1.7338623   -4.1930582    1.9573569 
H     1.5351694   -3.9344158    2.9178284 
O     1.8329164   -0.6074522   -3.5092523 
N    -0.6244876    1.1695383   -3.1532964 
H    -0.0609415    0.9230733   -1.1423778 
H    -0.5570879    0.6717878   -4.0741561 
H    -1.6389738    1.3164366   -2.9414893 
N     2.3991583    0.2073155   -1.2760845 
C     3.7167070    0.8011389   -1.6117219 
H     2.5034374   -0.7521269   -0.8781697 
C     3.5961544    2.2214026   -2.1716548 
O     4.3883924    2.6125788   -3.2453629 
O     2.7728884    3.1733436   -1.5717880 
H     2.2425272    2.7742873   -0.8115322 
C     4.5903207   -0.1176391   -2.5162829 
H     4.2618534    0.9379607   -0.6546741 
C     4.6837468   -1.5464846   -2.0204091 
H     5.6183383    0.3015465   -2.5808406 
H     4.1970672   -0.1002189   -3.5581901 
C     5.2985391   -1.9788461   -0.9072413 
C     6.0216880   -1.2910293    0.0138460 
C     6.5212596   -1.9709842    1.0852732 
C     6.2934465   -3.3124826    1.2197089 
C     5.5730060   -3.9845187    0.2777612 
C     5.0963845   -3.2918441   -0.7772532 
H     6.2098266   -0.2272215   -0.0898806 
H     7.1004672   -1.4425025    1.8388083 
H     6.6873813   -3.8451606    2.0817688 
H     5.3779880   -5.0474067    0.3703924 
N     4.3312752   -3.7995648   -1.8610123 
C     4.0951074   -2.6020270   -2.6128709 
H     4.0104972   -4.7770140   -2.0518360 
H     3.4994121   -2.5570893   -3.5227257 
