48
 energy: -9.075125876700 gnorm: 0.000458898484 xtb: 6.6.0 (2ccbbd7)
C            2.62364100632104       -3.39981465401421        1.12951061967177
C            1.95671249385084       -2.52899818859901        0.30169665467803
C            2.08172108884227       -3.75655627775289        2.36477805932804
C            0.85337542674336       -3.20605871628773        2.73074266447007
C            0.19391141146364       -2.33534066862990        1.89588397189361
C            0.73274132867827       -1.98745303176057        0.66555113761076
H            2.38867339380655       -2.23668519735566       -0.64000583520376
H            0.43707834645946       -3.47927102099883        3.68381623160429
H           -0.75113112078665       -1.91481023411424        2.19393837900730
H            3.57351293225120       -3.80901650112433        0.83541018813908
C            0.02502649403587       -1.03122348667491       -0.24660939030747
C            0.68682811789575        0.34855465995302       -0.31199984799545
H           -1.01919321242332       -0.92681932755849        0.06400224990817
H           -0.00175815613536       -1.45130621606296       -1.25669387675377
C            2.04298565356383        0.29166798835550       -0.96904394417899
O            2.72609111770464       -4.62650553184959        3.22418605004304
H            3.57335839015161       -4.92368567485802        2.82703214489681
O            2.21066986585373       -0.47303709175516       -1.89657565991602
N           -0.09911488436059        1.31314689985634       -1.06559619146942
H            0.81497906640721        0.73129999657345        0.71200456424314
H           -0.22700956750834        0.95530285816519       -2.00445124738432
H           -1.02084946987378        1.41242972371457       -0.66008815511763
N            2.98087445655443        1.19364039640121       -0.50199730750700
C            4.01531049271926        1.76525621768906       -1.36963006663352
H            2.69689312483936        1.85658861374137        0.21971776270542
C            3.52594462553594        3.08053433143236       -1.90505211374447
O            4.43915611560238        4.06289503796150       -2.15738106745593
O            2.18129280800445        3.28181085188867       -2.13875140507915
H            1.58293785114056        2.57510543478580       -1.76780648207079
C            4.46491155424949        0.80727613380153       -2.49273028446968
H            4.88528327017593        1.96249039290934       -0.72510759393663
C            5.92623717533094        0.82221387289113       -2.81027051951083
H            3.88080413175615        1.01115339951114       -3.39578745541656
H            4.19439626550529       -0.21227396232492       -2.19800374097005
C            6.80737249749826        1.94294831860178       -2.85289748919832
C            6.62459976687883        3.30967905687212       -2.61839508788214
C            7.68705961374730        4.15494471514992       -2.73312549710769
C            8.95980072148332        3.67240996610013       -3.08110667033219
C            9.16881443030534        2.34118518964866       -3.31980501704459
C            8.08385272216985        1.46165755769936       -3.20741843722998
H            5.48958650788391        3.70090519667101       -2.35750232661632
H            7.54417363173279        5.20846401746101       -2.55966269125697
H            9.78166389644717        4.36400725248624       -3.16440184879538
H           10.13761640837870        1.96124201785528       -3.59028496641492
N            7.97539157662564        0.09455563133534       -3.38596514123791
C            6.67522500585158       -0.27874400390273       -3.14886717676506
H            8.74615709802222       -0.52149201074242       -3.65106128725618
H            6.30430176838451       -1.28853240787885       -3.21970803315375
