48
Energy =
C    -2.1688073   -0.1517088   -0.0226575 
C    -0.9866416    0.2999410   -0.5121067 
C    -2.7531333    0.4710276    1.0355473 
C    -2.1502136    1.5441813    1.5958013 
C    -0.9679043    2.0006810    1.1102813 
C    -0.3760452    1.3771983    0.0548741 
H    -0.5364421   -0.2046413   -1.3629037 
H    -2.6285209    2.0336702    2.4372314 
H    -0.5012329    2.8674841    1.5717013 
H    -2.6463145   -1.0108022   -0.4812871 
C     0.9335594    1.8956428   -0.4954862 
C     0.7278441    3.1106106   -1.4286510 
H     1.4701322    1.0900774   -1.0396893 
H     1.5898095    2.1830896    0.3579687 
C     2.0440207    3.8135116   -1.7052155 
O    -3.9704639    0.0305918    1.5647560 
H    -4.3597030   -0.7750664    1.0873542 
O     2.5492526    4.6975826   -0.7577840 
N     0.0573937    2.7039960   -2.6773096 
H     0.1035129    3.8773393   -0.9092188 
H     0.5306504    1.8672872   -3.0935029 
H    -0.9334245    2.4318034   -2.4715181 
N     2.8897953    3.3992354   -2.7853022 
C     4.1802248    2.7797407   -2.4419215 
H     2.5447899    3.5104520   -3.7660425 
C     5.3362001    3.6311923   -2.9695444 
O     5.9114796    3.3433605   -4.2044501 
O     5.8066133    4.7336908   -2.2561651 
H     5.2146443    4.9416970   -1.4623507 
C     4.1877233    1.3383395   -2.9929084 
H     4.3117747    2.7314849   -1.3351459 
C     5.3934279    0.5593899   -2.5124148 
H     4.1631046    1.3588525   -4.1065759 
H     3.2637155    0.8104389   -2.6754322 
C     5.5465743   -0.0247659   -1.3134045 
C     4.6901216   -0.0914436   -0.2620085 
C     5.0948547   -0.7472603    0.8632428 
C     6.3363227   -1.3179765    0.9209964 
C     7.1808448   -1.2354550   -0.1462221 
C     6.7560922   -0.5831913   -1.2486736 
H     3.7079456    0.3653035   -0.3039168 
H     4.4286225   -0.8145824    1.7199541 
H     6.6530331   -1.8367909    1.8223533 
H     8.1707068   -1.6780240   -0.1151058 
N     7.4773726   -0.3729826   -2.4539130 
C     6.5251601    0.3807992   -3.2170145 
H     8.4398990   -0.6885310   -2.7142805 
H     6.7086119    0.7754800   -4.2155766 
