48
Energy =
C     2.1403829    1.8650611    6.0727613 
C     2.2647619    0.9561284    5.0725494 
C     3.0418742    2.8759293    6.1944936 
C     4.0637737    2.9693480    5.3138335 
C     4.1938447    2.0629729    4.3123630 
C     3.2923433    1.0505833    4.1839227 
H     1.5363357    0.1535521    4.9915225 
H     4.7765801    3.7795925    5.4217208 
H     5.0243128    2.1542296    3.6156027 
H     1.3185593    1.7810105    6.7755291 
C     3.4354553    0.0453846    3.0610073 
C     3.0939716    0.6573547    1.6782633 
H     2.8030571   -0.8546228    3.2334169 
H     4.4870991   -0.3228697    3.0572503 
C     3.4914037   -0.2627151    0.5363988 
O     2.9414565    3.8291446    7.2133910 
H     2.1511621    3.6884300    7.8329200 
O     4.0448245   -1.5164830    0.7784020 
N     1.6576809    0.9913363    1.5746150 
H     3.7162194    1.5746284    1.5393135 
H     1.1446123    0.8381386    2.4734168 
H     1.5572284    2.0110001    1.3547598 
N     3.4796094    0.2316590   -0.8054369 
C     4.7598834    0.7404944   -1.3257457 
H     2.5953181    0.1566936   -1.3554638 
C     4.9823235    2.1885158   -0.9039117 
O     6.0941790    2.5131090   -0.1386450 
O     4.0838933    3.2013374   -1.2413876 
H     3.2659184    2.8310276   -1.7010744 
C     4.7857782    0.5663949   -2.8568610 
H     5.6031311    0.1472666   -0.8949657 
C     6.1390757    0.9228814   -3.4306420 
H     3.9992556    1.1925445   -3.3322558 
H     4.5412359   -0.4887505   -3.1108695 
C     7.2119717    0.1211180   -3.5176775 
C     7.3582260   -1.1799720   -3.1573235 
C     8.5746519   -1.7695526   -3.3395806 
C     9.6154616   -1.0572214   -3.8687001 
C     9.4465706    0.2502675   -4.2167565 
C     8.2328314    0.8100445   -4.0300520 
H     6.5368123   -1.7443254   -2.7253190 
H     8.7186645   -2.8096373   -3.0565647 
H    10.5832391   -1.5330461   -4.0060368 
H    10.2638566    0.8325040   -4.6284376 
N     7.8546802    2.1523429   -4.3016731 
C     6.4855804    2.1446902   -3.8727443 
H     8.4211533    2.9300214   -4.7117899 
H     5.8363946    3.0200677   -3.8560812 
