48
Energy =
C     2.2313224   -3.8757809   -2.3011997 
C     2.3094619   -2.4183137   -2.5012655 
C     1.5944334   -4.6095726   -3.2420205 
C     0.8668080   -4.0350495   -4.2104363 
C     0.8335360   -2.7000922   -4.3626362 
C     1.5527464   -1.8781912   -3.5577997 
H     2.7236780   -1.3228680   -1.7490617 
H     0.3330722   -4.6765877   -4.9049307 
H     0.2532561   -2.2980777   -5.1905364 
H     2.4878413   -3.1107105   -1.7697038 
C     1.6811653   -0.4160423   -3.9932579 
C     1.0965459    0.7611551   -3.1408213 
H     1.2295226   -0.2993351   -5.0038293 
H     2.7573993   -0.2183277   -4.2298525 
C     1.2028798    0.8905707   -1.5951030 
O     1.6604522   -6.0048667   -3.2107386 
H     2.2241848   -6.3720503   -2.4492047 
O     0.0443737    1.2905369   -0.9357277 
N     1.5438236    2.0089964   -3.7746961 
H    -0.0159992    0.7050645   -3.2748475 
H     2.5827898    2.1596448   -3.6737964 
H     1.2866200    2.0497657   -4.7883555 
N     2.3302831    0.5596314   -0.7454048 
C     3.7014464    1.0158804   -1.1122615 
H     2.0998464    0.8686860    0.2276018 
C     3.8434617    2.5163446   -1.4012891 
O     4.9872545    2.9839381   -2.0391768 
O     2.9247110    3.4746279   -0.9615330 
H     2.1685925    3.0935029   -0.4172293 
C     4.3568863    0.1392059   -2.2291083 
H     4.3407852    0.8629858   -0.2169486 
C     4.0097825   -1.3993142   -2.2208367 
H     5.4717453    0.2811989   -2.1827271 
H     4.0336111    0.5780239   -3.1938750 
C     4.8293028   -2.0645046   -1.1423909 
C     4.6555128   -1.9785838    0.2011743 
C     5.4887939   -2.6760418    1.0194786 
C     6.4733586   -3.4556552    0.4905265 
C     6.6214877   -3.5453559   -0.8589886 
C     5.7856265   -2.8468085   -1.6611488 
H     3.8633205   -1.3688959    0.6219278 
H     5.3687886   -2.6118156    2.0977759 
H     7.1401170   -4.0095547    1.1465033 
H     7.3983820   -4.1668912   -1.2926128 
N     5.8303936   -2.8917615   -3.0869253 
C     4.7517406   -2.0098048   -3.4304631 
H     5.5514962   -3.8559855   -3.3823439 
H     4.5700376   -1.7234571   -4.4620945 
