48
Energy =
C     1.3471454    0.2514118    2.4814324 
C     0.5608434    0.5763075    1.4249170 
C     2.4219431    1.0221007    2.7971440 
C     2.7054743    2.1118512    2.0480595 
C     1.9173597    2.4460567    0.9947323 
C     0.8391112    1.6777717    0.6746830 
H    -0.2916877   -0.0526654    1.1833376 
H     3.5710850    2.7153894    2.3011538 
H     2.1659644    3.3253982    0.4035547 
H     1.1170910   -0.6299692    3.0698194 
C    -0.0371281    2.0406922   -0.5072976 
C     0.4223435    1.4000646   -1.8404268 
H    -0.0585932    3.1484216   -0.6243223 
H    -1.0891755    1.7463948   -0.2999118 
C     1.8253849    1.8380597   -2.2376244 
O     3.2483872    0.7145585    3.8833845 
H     2.9102958   -0.0579778    4.4456174 
O     2.0910552    3.1923288   -2.4067183 
N     0.2677482   -0.0655808   -1.8031209 
H    -0.2309125    1.7954045   -2.6521370 
H     0.9438019   -0.4843784   -1.1204311 
H    -0.6973747   -0.3224381   -1.4903054 
N     2.8318526    0.8831078   -2.6041179 
C     3.9114837    0.8291690   -1.5905153 
H     3.1962284    1.1890368   -3.5341506 
C     4.8626126    2.0303648   -1.6447240 
O     4.9491927    2.8747119   -0.5433978 
O     5.6844271    2.2781977   -2.7459996 
H     5.5607481    1.5899695   -3.4714183 
C     4.6613496   -0.5104548   -1.7416406 
H     3.4741512    0.8421085   -0.5656342 
C     3.8144051   -1.6549237   -1.2311105 
H     5.6213130   -0.4898889   -1.1782193 
H     4.9224770   -0.6896304   -2.8079935 
C     3.6886782   -2.0503662    0.0452841 
C     4.2980809   -1.5830860    1.1648162 
C     3.9864207   -2.1593948    2.3604649 
C     3.0718180   -3.1745516    2.4209546 
C     2.4646152   -3.6201663    1.2841881 
C     2.7965659   -3.0392757    0.1120350 
H     5.0125868   -0.7660283    1.1239966 
H     4.4636302   -1.7998265    3.2698439 
H     2.8257997   -3.6261308    3.3786864 
H     1.7329070   -4.4202965    1.3138823 
N     2.2725657   -3.3378761   -1.1740319 
C     2.9785018   -2.3887881   -1.9854542 
H     1.5646913   -4.0542188   -1.4553481 
H     2.8148821   -2.2465306   -3.0513343 
