48
Energy =
C    -1.8063053   -1.0213634   -4.7585884 
C    -0.7037745   -0.9345098   -3.9708621 
C    -2.0535805   -2.1549868   -5.4641679 
C    -1.1951413   -3.1944869   -5.3780649 
C    -0.0927078   -3.1131177   -4.5913654 
C     0.1570368   -1.9853560   -3.8656953 
H    -0.5259888   -0.0209124   -3.4201184 
H    -1.3992711   -4.0913427   -5.9528978 
H     0.5894727   -3.9583101   -4.5554196 
H    -2.4878762   -0.1797726   -4.8250563 
C     1.4390791   -1.8927605   -3.0436574 
C     1.3150755   -1.2770513   -1.6145926 
H     2.2997508   -1.3623477   -3.7456187 
H     1.8300606   -2.9249454   -2.8972720 
C     1.6923181    0.2049068   -1.5382665 
O    -3.1769592   -2.2760188   -6.2877100 
H    -3.7765957   -1.4578811   -6.2926668 
O     0.8678800    1.1849606   -2.0710337 
N    -0.0225743   -1.5386354   -1.0544748 
H     2.0734583   -1.7920030   -0.9787730 
H    -0.1660142   -2.5718583   -0.9586037 
H    -0.0893978   -1.1312881   -0.0912713 
N     2.7950449    0.6211878   -0.7235596 
C     3.9820024    1.2446243   -1.3476329 
H     2.7878359    0.3624575    0.2875526 
C     3.8270982    2.7446449   -1.5734750 
O     3.9701267    3.6121130   -0.4952270 
O     3.6605857    3.2751226   -2.8513433 
H     3.2127579    2.4766394   -3.5420986 
C     4.5008295    0.4715318   -2.5846411 
H     4.8054955    1.1806927   -0.6017725 
C     3.5650310    0.4442959   -3.7835389 
H     4.7372759   -0.5649913   -2.2641015 
H     5.4589467    0.9285625   -2.9208161 
C     3.1578082   -0.8293780   -4.4430538 
C     4.2744761   -1.8105067   -4.7505075 
C     4.4186391   -2.3134463   -5.9934267 
C     3.6821701   -1.8557677   -7.0327577 
C     2.8094299   -0.8309620   -6.9007070 
C     2.5514747   -0.2934193   -5.6947398 
H     4.8899474   -2.1988695   -3.9449569 
H     5.1646912   -3.0847382   -6.1702175 
H     3.8643904   -2.2651710   -8.0234849 
H     2.3748433   -0.3810933   -7.7876874 
N     2.1454739    1.0615190   -5.5608419 
C     2.7162748    1.5961703   -4.3197452 
H     1.5626772    1.5894167   -6.2509438 
H     2.3970130    2.6387539   -4.5312102 
