48
Energy =
C     2.2250747   -0.4972442   -8.4025465 
C     1.5765911    0.1910724   -7.4293938 
C     3.5775765   -0.4120122   -8.5151272 
C     4.2724097    0.3605876   -7.6498717 
C     3.6291958    1.0520526   -6.6757060 
C     2.2748378    0.9750338   -6.5620383 
H     0.4961622    0.1056518   -7.3483551 
H     5.3513236    0.4153570   -7.7445931 
H     4.2094597    1.6605974   -5.9874768 
H     1.6596794   -1.1182431   -9.0885695 
C     1.5522620    1.7237870   -5.4635270 
C     1.2259884    0.8088762   -4.2599472 
H     0.6136676    2.1497964   -5.8771031 
H     2.1476985    2.6039379   -5.1311555 
C     2.4800750    0.3000328   -3.5561166 
O     4.2756350   -1.1053716   -9.5095987 
H     3.6860257   -1.6756005  -10.1054737 
O     3.0340021   -0.9048010   -3.9739126 
N     0.3230075    1.5105913   -3.3324184 
H     0.7081817   -0.1084276   -4.6292986 
H     0.7364952    2.4343624   -3.0549748 
H    -0.5921682    1.7049399   -3.8023438 
N     2.8636644    0.8114413   -2.2710228 
C     4.0076836    1.7385189   -2.1922671 
H     2.3084054    0.5152297   -1.4384920 
C     3.6943231    3.0695900   -2.8697378 
O     4.2244186    3.3775775   -4.1172949 
O     2.7929940    3.9677246   -2.3027226 
H     2.4661303    3.6456291   -1.4039769 
C     5.2801330    1.0461943   -2.7308712 
H     4.1816442    1.9809201   -1.1201712 
C     6.5355612    1.7766262   -2.3092221 
H     5.2408734    0.9767153   -3.8397155 
H     5.3190897   -0.0040975   -2.3666816 
C     7.1828327    1.6499950   -1.1408951 
C     6.9132310    0.8470507   -0.0796482 
C     7.7332449    0.9144641    1.0084352 
C     8.7959116    1.7756253    1.0202483 
C     9.0444294    2.5750837   -0.0561000 
C     8.2204194    2.4878725   -1.1212681 
H     6.0675043    0.1657047   -0.0877620 
H     7.5403737    0.2808234    1.8707760 
H     9.4442235    1.8247536    1.8914852 
H     9.8798351    3.2668014   -0.0622974 
N     8.2932343    3.2344932   -2.3271213 
C     7.1601836    2.7173745   -3.0386397 
H     8.9839165    3.9610024   -2.6231117 
H     6.8376912    3.0610906   -4.0194926 
