48
Energy =
C    -1.3646482   -4.1082639   -0.6509236 
C    -0.5108717   -3.2262133   -1.2289004 
C    -2.6759185   -4.1257741   -1.0105944 
C    -3.1235634   -3.2586919   -1.9469942 
C    -2.2740904   -2.3738381   -2.5278951 
C    -0.9597714   -2.3549359   -2.1736151 
H     0.5323794   -3.2199014   -0.9276401 
H    -4.1718324   -3.2821138   -2.2242018 
H    -2.6560774   -1.6830418   -3.2749540 
H    -0.9965799   -4.7979604    0.1007886 
C    -0.0091849   -1.3613472   -2.8043510 
C     0.3774561   -0.2151476   -1.8361129 
H    -0.4388723   -0.9302414   -3.7368429 
H     0.9043650   -1.9064655   -3.1264360 
C     1.4612696    0.6952305   -2.4170778 
O    -3.5827166   -5.0206664   -0.4333851 
H    -3.1694900   -5.6393560    0.2556352 
O     1.9358474    0.4788295   -3.7090175 
N    -0.8129142    0.5697105   -1.4675286 
H     0.8209425   -0.6549568   -0.9137159 
H    -1.2989772    0.9072481   -2.3327326 
H    -1.4882788   -0.0309723   -0.9387196 
N     1.8998840    1.8614422   -1.6938343 
C     3.3545476    1.9970526   -1.4016940 
H     1.3549224    1.9254211   -0.8030090 
C     3.8692048    3.3138766   -1.9865313 
O     4.9350545    3.3187359   -2.8818685 
O     3.3275700    4.5393056   -1.5948481 
H     2.5118878    4.4159882   -1.0129105 
C     4.2651452    0.8029036   -1.8301001 
H     3.4754767    2.1240855   -0.3055608 
C     3.9473407   -0.5168068   -1.1567572 
H     5.3222978    1.0491257   -1.5852610 
H     4.2380090    0.6986059   -2.9401655 
C     4.0760210   -0.8233924    0.1457961 
C     4.5193829   -0.0676458    1.1842503 
C     4.5637370   -0.6316322    2.4250557 
C     4.1814598   -1.9312978    2.6076214 
C     3.7595024   -2.6781403    1.5487903 
C     3.7180778   -2.0965223    0.3320578 
H     4.8543263    0.9545388    1.0444119 
H     4.9150459   -0.0470413    3.2724530 
H     4.2265042   -2.3748829    3.5994444 
H     3.4708978   -3.7164137    1.6740722 
N     3.3534026   -2.7090880   -0.8959508 
C     3.5390479   -1.6208499   -1.8091715 
H     3.0149635   -3.6821670   -1.0783866 
H     3.3896276   -1.6893588   -2.8857767 
