48
Energy =
C     3.7466466    1.4535037    5.6472007 
C     3.2146017    0.9263812    4.5157299 
C     5.0958875    1.5390940    5.7926750 
C     5.9042389    1.0970610    4.8025669 
C     5.3778246    0.5691271    3.6685403 
C     4.0279450    0.4772028    3.5198796 
H     2.1340776    0.8699784    4.4131680 
H     6.9786450    1.1728722    4.9302554 
H     6.0440444    0.2211523    2.8832919 
H     3.0902238    1.8074687    6.4346259 
C     3.4414114   -0.0958958    2.2484028 
C     3.4628126    0.9186164    1.0783114 
H     2.4008772   -0.4544865    2.4163937 
H     4.0238529   -1.0023496    1.9658660 
C     3.0464824    0.2745035   -0.2416416 
O     5.6764485    2.0766365    6.9460190 
H     5.0053178    2.3870623    7.6401084 
O     2.6407433   -1.0555503   -0.2794172 
N     2.6034040    2.0758456    1.3801457 
H     4.5108492    1.2666800    0.9325457 
H     1.6465287    1.7517787    1.6607555 
H     3.0011500    2.6155474    2.1854835 
N     3.0215570    1.0301775   -1.4631799 
C     4.3725885    1.2328016   -2.0455520 
H     2.4802263    1.9115519   -1.3075879 
C     4.7393367    2.7086348   -2.2598581 
O     5.4703637    3.0833201   -3.3809476 
O     4.4876455    3.6843015   -1.2959428 
H     4.0577848    3.3118301   -0.4646696 
C     4.4569040    0.4039888   -3.3483766 
H     5.1755976    0.8469678   -1.3751672 
C     3.3689093    0.7578739   -4.3464914 
H     4.3853489   -0.6752316   -3.0923702 
H     5.4548725    0.5400126   -3.8225419 
C     2.1416627    0.2154752   -4.4297636 
C     1.5676902   -0.7648014   -3.6851378 
C     0.2888245   -1.1377561   -3.9763405 
C    -0.3908051   -0.5348872   -4.9981323 
C     0.2049422    0.4457761   -5.7340774 
C     1.4708093    0.7978224   -5.4255224 
H     2.1008439   -1.2422017   -2.8687150 
H    -0.1918393   -1.9162567   -3.3886792 
H    -1.4105685   -0.8368961   -5.2228396 
H    -0.3199425    0.9359500   -6.5468517 
N     2.2632627    1.7890854   -6.0622276 
C     3.4759579    1.7013107   -5.3005722 
H     2.0289708    2.4085375   -6.8718077 
H     4.3547240    2.3214836   -5.4710123 
