48
Energy =
C    -3.9833232   -0.2764720    0.8802805 
C    -2.9357300   -1.0348661    0.4687382 
C    -3.7807450    1.0038859    1.2917207 
C    -2.5296168    1.5172505    1.2862012 
C    -1.4784083    0.7634027    0.8761734 
C    -1.6751010   -0.5200787    0.4682679 
H    -3.1150724   -2.0543260    0.1373091 
H    -2.3814231    2.5406355    1.6123568 
H    -0.4809627    1.1947955    0.8743804 
H    -4.9833858   -0.6961697    0.8779790 
C    -0.5051271   -1.3545875   -0.0038665 
C    -0.0499316   -0.9742517   -1.4312170 
H    -0.7511990   -2.4403607    0.0297508 
H     0.3405198   -1.2133311    0.7054554 
C     1.2275021   -1.7087117   -1.7932357 
O    -4.8383147    1.8116326    1.7232584 
H    -5.7433407    1.3554962    1.6912022 
O     1.2143370   -3.0952542   -1.9064483 
N    -1.1032501   -1.2667000   -2.4149500 
H     0.1788570    0.1156480   -1.4668122 
H    -1.3973747   -2.2691888   -2.3355439 
H    -1.9392480   -0.6644564   -2.2323771 
N     2.4974539   -1.0563423   -1.6628982 
C     3.1024014   -0.4836028   -2.8789347 
H     2.9279728   -0.9624065   -0.7161494 
C     2.2034484    0.5710447   -3.5220062 
O     1.6687301    0.3615776   -4.7881273 
O     1.9124777    1.7651184   -2.8607235 
H     2.3364159    1.7986534   -1.9448930 
C     3.4978820   -1.6148193   -3.8558085 
H     4.0289235    0.0597100   -2.5888480 
C     4.5980923   -2.4792974   -3.2801057 
H     3.8415149   -1.1851010   -4.8220884 
H     2.6046137   -2.2402673   -4.0918884 
C     5.9132259   -2.2110118   -3.2924443 
C     6.5812475   -1.1552844   -3.8255651 
C     7.9383992   -1.1149961   -3.6951236 
C     8.5995764   -2.1170280   -3.0399664 
C     7.9073387   -3.1655499   -2.5106339 
C     6.5658022   -3.1837502   -2.6543636 
H     6.0587859   -0.3569235   -4.3448819 
H     8.4977307   -0.2815719   -4.1139737 
H     9.6814284   -2.0773934   -2.9394893 
H     8.4157871   -3.9670603   -1.9853360 
N     5.6641167   -4.1690608   -2.1723906 
C     4.4087221   -3.6326258   -2.6134303 
H     5.8599782   -5.0482023   -1.6406565 
H     3.4414114   -4.0913299   -2.4166729 
