48
Energy =
C     3.8899532    0.6493806   -8.9525939 
C     3.9980097    0.3202785   -7.6404310 
C     3.0613058   -0.0557016   -9.7684554 
C     2.3447386   -1.0857237   -9.2641511 
C     2.4480724   -1.4188107   -7.9527749 
C     3.2798017   -0.7194069   -7.1329919 
H     4.6621837    0.8966160   -7.0014414 
H     1.6857015   -1.6386583   -9.9244341 
H     1.8603478   -2.2474445   -7.5653383 
H     4.4667459    1.4788822   -9.3472598 
C     3.3784985   -1.0775768   -5.6665577 
C     2.1960826   -0.5000114   -4.8510868 
H     4.3495514   -0.7453843   -5.2545461 
H     3.3819863   -2.1877355   -5.5680094 
C     2.1042422   -1.0963772   -3.4408052 
O     2.9268981    0.2571945  -11.1250825 
H     3.4927060    1.0438444  -11.4243569 
O     1.4783581   -2.3354250   -3.3628653 
N     2.1406617    0.9677189   -4.9065089 
H     1.2631308   -0.8890061   -5.3288208 
H     3.0932234    1.3830837   -5.0255233 
H     1.6021580    1.2668604   -5.7534201 
N     2.6255372   -0.5852999   -2.1876636 
C     3.4917476    0.6149389   -2.0612818 
H     1.8426077   -0.5898570   -1.4970092 
C     2.8359574    1.9618337   -2.3919352 
O     3.5910316    2.9655157   -2.9927492 
O     1.5379885    2.2811541   -1.9926412 
H     1.0521332    1.4967271   -1.5950803 
C     4.8651680    0.3790407   -2.7398076 
H     3.6924024    0.7183062   -0.9709297 
C     5.9984924    1.0062415   -1.9563744 
H     4.8763303    0.8024202   -3.7621683 
H     5.0580320   -0.7116143   -2.8401856 
C     6.6365364    0.4708113   -0.9046841 
C     6.4612787   -0.7334938   -0.3023810 
C     7.2419078   -1.0387212    0.7736378 
C     8.1717029   -0.1446890    1.2286195 
C     8.3252836    1.0612552    0.6110559 
C     7.5434694    1.3385612   -0.4533839 
H     5.7171174   -1.4415294   -0.6570462 
H     7.1217010   -1.9967674    1.2741476 
H     8.7880193   -0.3945222    2.0887307 
H     9.0528834    1.7845050    0.9634968 
N     7.5285488    2.5339510   -1.2206567 
C     6.4915132    2.2389562   -2.1684760 
H     8.1171334    3.3930314   -1.1232755 
H     6.1284076    2.9298034   -2.9298214 
