48
Energy =
C    -2.2382890    2.4929997    2.4350429 
C    -1.4152471    3.0471441    1.5091062 
C    -3.2942946    1.7312419    2.0425310 
C    -3.5187754    1.5288626    0.7243758 
C    -2.6987957    2.0800442   -0.2058750 
C    -1.6425290    2.8462100    0.1816979 
H    -0.5714243    3.6484408    1.8383243 
H    -4.3633998    0.9186203    0.4242950 
H    -2.8943292    1.9036970   -1.2602716 
H    -2.0483638    2.6592646    3.4898985 
C    -0.7187468    3.4473699   -0.8545739 
C     0.2924318    2.4144723   -1.4125593 
H    -0.1679141    4.3195172   -0.4358296 
H    -1.3368726    3.8587237   -1.6846943 
C     1.0337411    2.9432755   -2.6363223 
O    -4.1610899    1.1447826    2.9706395 
H    -3.9264862    1.3462403    3.9364876 
O     0.8407106    4.2555848   -3.0615383 
N     1.2397552    2.0091956   -0.3598501 
H    -0.2629390    1.5174146   -1.7741178 
H     1.7151490    2.8521634    0.0454273 
H     0.7310402    1.5272125    0.4185272 
N     1.7052000    2.0331979   -3.5245963 
C     3.0391377    1.6446602   -3.0044727 
H     1.8008826    2.5264377   -4.4416425 
C     3.9610525    2.8331510   -2.6806019 
O     4.5037538    2.9444647   -1.4059394 
O     4.3115668    3.7874044   -3.6380962 
H     3.8237792    3.6428587   -4.5066819 
C     3.6822084    0.6619799   -4.0075649 
H     2.9007319    1.0934955   -2.0450708 
C     4.9010665   -0.0198057   -3.4222524 
H     3.9403405    1.1772755   -4.9574236 
H     2.9347915   -0.1198020   -4.2740729 
C     6.1844478    0.3584591   -3.5454888 
C     6.7273911    1.3993070   -4.2284751 
C     8.0796811    1.5703852   -4.1828292 
C     8.8614097    0.7087352   -3.4644521 
C     8.2950410   -0.3290688   -2.7859791 
C     6.9549924   -0.4776342   -2.8467130 
H     6.1120302    2.0901544   -4.7950103 
H     8.5369963    2.4005179   -4.7158508 
H     9.9380276    0.8548702   -3.4297349 
H     8.8998593   -1.0183246   -2.2067697 
N     6.1733392   -1.4770353   -2.2079065 
C     4.8547790   -1.1031993   -2.6269007 
H     6.4800143   -2.2715737   -1.6013042 
H     3.9448295   -1.6158503   -2.3232077 
