48
 energy: -9.070577999853 gnorm: 0.000470683299 xtb: 6.6.0 (2ccbbd7)
C           -3.64562100462899       -0.74277706384094       -0.92991208050460
C           -2.31710986422120       -0.67757747040181       -1.27827508499559
C           -4.02568472457532       -0.80444738293025        0.41137217328933
C           -3.02506186610288       -0.79436636127412        1.38296440507682
C           -1.69923124512722       -0.72757311586192        1.02659485646033
C           -1.32492513802454       -0.67619611044086       -0.30823256000420
H           -2.03560609429056       -0.62553094437447       -2.31613910910101
H           -3.31787036699459       -0.83824574059765        2.41683447072031
H           -0.93611575091097       -0.71245930939047        1.78596737046332
H           -4.40628244529801       -0.74513787583230       -1.69002888766137
C            0.11788969346669       -0.56348359544776       -0.68791914219076
C            0.63348386072456        0.87436281091723       -0.63567601853717
H            0.26863262364056       -0.96126152646376       -1.69575575422491
H            0.72388523948454       -1.19408656483341       -0.02861857871545
C            2.11211256064434        0.93654616071786       -0.92261545708857
O           -5.35172483168734       -0.87242039699582        0.79509518524542
H           -5.93123945870819       -0.87441645567978        0.00271921083722
O            2.90528733766742        0.78441092762236       -0.01430348259065
N           -0.08343912242601        1.77269344070504       -1.53955962407772
H            0.50304887693734        1.26305882008269        0.38742634233750
H           -0.18434387737723        1.33048289704003       -2.44487651383136
H           -1.02482245988692        1.92435416847971       -1.20131314410417
N            2.49872139489947        1.20565403762629       -2.21863831429539
C            3.73643468304135        1.93236654371249       -2.44735583583490
H            1.79179894490982        1.39331225494021       -2.93649524228252
C            3.48566380428208        3.41125766712343       -2.31752941208944
O            4.54030483301733        4.27372197879462       -2.37241966335071
O            2.19700995248248        3.88169714395601       -2.15718679613145
H            1.53309968031491        3.16741338108830       -1.94092078961407
C            4.36369240911355        1.53717266766876       -3.80543195944658
H            4.41268909106201        1.62644998210307       -1.63447612615339
C            5.83195372340993        1.27042423224810       -3.73454472828106
H            4.16351397444470        2.31988871389342       -4.54414171039446
H            3.86099618972497        0.63789372466828       -4.17700211932239
C            6.80409581465587        2.10223810000144       -3.11232148673934
C            6.69904104248615        3.32079850964346       -2.43816311688461
C            7.82326927198338        3.89140646524009       -1.92228594252148
C            9.07583341538395        3.26834848737965       -2.06108747507022
C            9.20526263348238        2.07419372694337       -2.71882947674748
C            8.05678237141221        1.47614281074783       -3.25497352299022
H            5.57198636068342        3.81426428936288       -2.38283763408605
H            7.74690446609332        4.83245308081885       -1.40373552899486
H            9.94815581521412        3.74166826598835       -1.64189310197163
H           10.15929906802622        1.59064486738062       -2.82848583831068
N            7.84691933501588        0.29911946313673       -3.95259153830669
C            6.50649535687894        0.18393024697440       -4.23634560323319
H            8.57867846585751       -0.37002629085134       -4.19871231962439
H            6.05898994727707       -0.63931414184277       -4.76928030116860
