48
Energy =
C     5.0591996   -1.4891970   -5.0888535 
C     4.2310298   -1.5584178   -4.0097570 
C     4.5581994   -1.3891116   -6.3432455 
C     3.2234238   -1.3767856   -6.5293653 
C     2.3773296   -1.5046070   -5.4788390 
C     2.8530561   -1.6213594   -4.2045837 
H     4.9553771   -1.5054955   -2.4783025 
H     2.8385218   -1.2819473   -7.5383279 
H     1.3092294   -1.5254880   -5.6770551 
H     6.1310986   -1.4824535   -4.9327745 
C     1.8393423   -1.9727211   -3.0882184 
C     1.5656921   -1.0260993   -1.8615923 
H     2.1506696   -2.9596527   -2.6829955 
H     0.8509948   -2.1743407   -3.5576954 
C     1.5088608    0.4893071   -2.1479158 
O     5.3964945   -1.2907691   -7.4590675 
H     6.3849336   -1.2900617   -7.2334477 
O     0.4756537    1.0268341   -2.9081040 
N     0.3407271   -1.4617163   -1.1715990 
H     2.3989655   -1.1737903   -1.1365780 
H    -0.4923434   -1.2969635   -1.7881528 
H     0.3853648   -2.4865084   -0.9600853 
N     2.4841382    1.3791679   -1.5242012 
C     3.7665813    1.5531506   -2.3274860 
H     2.0019123    2.3048944   -1.4319389 
C     3.4902937    2.3310509   -3.6231676 
O     3.1178241    1.6471833   -4.7729564 
O     3.5791052    3.7227242   -3.6740044 
H     3.8159385    4.1298088   -2.7821233 
C     4.6494072    0.2236889   -2.6059827 
H     4.4166479    2.2183752   -1.7135954 
C     6.0250350    0.7314001   -3.0331410 
H     3.6778018   -0.0883494   -2.5060630 
H     4.9793823   -2.9228657   -2.8636032 
C     7.1163509    0.7361225   -2.2588293 
C     7.2659011    0.3250224   -0.9747798 
C     8.4981145    0.4349512   -0.3997180 
C     9.5485214    0.9483778   -1.1104340 
C     9.3723198    1.3546359   -2.4005457 
C     8.1437197    1.2348360   -2.9458570 
H     6.4285694   -0.0813853   -0.4141878 
H     8.6455998    0.1132796    0.6284411 
H    10.5276055    1.0335181   -0.6455083 
H    10.1933937    1.7646193   -2.9787346 
N     7.7460551    1.5944183   -4.2609896 
C     6.3571220    1.2354998   -4.2368902 
H     8.3127622    2.0016027   -5.0402975 
H     5.6802531    1.3417711   -5.0851644 
