48
 energy: -9.290516797772 gnorm: 0.000735931810 xtb: 6.6.0 (2ccbbd7)
C            0.41198759397883       -0.11216417096057        1.63913247438159
C            0.72751067317395        1.22545642260784        1.62926457581851
C           -0.25640465079709       -0.69010366637377        0.55952504161942
C           -0.63662878837186        0.13195905700733       -0.50155792856383
C           -0.32027333431996        1.46953606245375       -0.50182475695956
C            0.37484989317736        2.03387953854423        0.55796704244418
H            1.27769820410401        1.65372406170987        2.44950489975012
H           -1.15154474806722       -0.31320878224160       -1.33401570799689
H           -0.57012710508194        2.08681807578987       -1.34826658948582
H            0.71008643916531       -0.73470498427313        2.46358894493624
C            0.84566912648577        3.45349371622777        0.48969267518472
C            2.13174840268088        3.58781126336022       -0.33180997941387
H            1.00139503447584        3.84200059251208        1.50068946518379
H            0.07113720571134        4.08037223572551        0.03767472996306
C            1.84487479932083        3.31691640502856       -1.78958946659575
O           -0.49248530025934       -2.05297038952011        0.49428926104059
H           -0.26946264744608       -2.47394117873830        1.35346823807100
O            1.04285441640229        4.03271414811843       -2.35529519138885
N            2.73732481421815        4.90355182305191       -0.21179363508555
H            2.85550037831789        2.84602383423192        0.03459728628334
H            2.16339440989574        5.57448818269244       -0.70527628487163
H            2.80262110891156        5.19373243338701        0.75606334092913
N            2.50112803664615        2.30399185757822       -2.48281292639096
C            3.95254612158545        2.11064314956434       -2.38175784689878
H            2.21507171808017        2.16771550544946       -3.44865581073831
C            4.67744784491297        3.19738792751272       -3.15666829604505
O            5.86302779038839        3.03409338709607       -3.35047662555834
O            3.96367605028593        4.27343552707523       -3.57984454521200
H            3.02267618981627        4.24096362151870       -3.27385524656150
C            4.36770427923255        0.72850881602797       -2.89119618677080
H            4.23880368879450        2.19721165887637       -1.32689090462198
C            3.74350437591383       -0.40441389017736       -2.14662404707984
H            5.45844341918700        0.64599120333989       -2.84782108523537
H            4.10423009368103        0.65056205995028       -3.95005429524959
C            4.28209204246809       -1.71163059860659       -1.95341543587018
C            5.51022101864589       -2.30080907137264       -2.29968969093692
C            5.73077268416074       -3.60542105219485       -1.95407060486889
C            4.75819237091473       -4.35151408505066       -1.26833384885199
C            3.55483638066513       -3.80022551814282       -0.92265523675696
C            3.30821369019798       -2.46539696839422       -1.26592888406372
H            6.25256239908822       -1.72592967669738       -2.82424712215218
H            6.66778522208175       -4.07123669052167       -2.21059588868256
H            4.96532436360808       -5.37710697402529       -1.01121537314055
H            2.80331884228755       -4.36423893268924       -0.39998643085151
N            2.21566984152791       -1.64423604859515       -1.05486132744546
C            2.49033452184392       -0.41366818473548       -1.59278476491374
H            1.35141653016018       -1.90352886255566       -0.57338207053460
H            1.82162650255130        0.42708331726454       -1.58231711760679
