48
Energy =
C    -3.0539153   -0.7934605    1.1118575 
C    -1.8353131   -0.1993218    1.1761174 
C    -4.1061256   -0.1372677    0.5539020 
C    -3.9317002    1.1115480    0.0656164 
C    -2.7157147    1.7106082    0.1269773 
C    -1.6575510    1.0570038    0.6808429 
H    -1.0063876   -0.7376314    1.6284039 
H    -4.7794366    1.6257439   -0.3738380 
H    -2.5974878    2.7165091   -0.2675656 
H    -3.1852158   -1.7943672    1.5086886 
C    -0.2999692    1.7250191    0.7418216 
C     0.3835912    1.8050937   -0.6477814 
H     0.3777137    1.2056868    1.4562217 
H    -0.4344026    2.7519254    1.1528050 
C     1.6185678    2.6950172   -0.6176982 
O    -5.3740149   -0.7218035    0.4699532 
H    -5.4254086   -1.6545166    0.8647702 
O     2.0403816    3.2928787    0.5668804 
N     0.7405928    0.4613172   -1.1496165 
H    -0.3197686    2.3045817   -1.3546914 
H     0.3984054   -0.3059400   -0.5262520 
H     0.2830833    0.3058151   -2.0786151 
N     2.2920992    3.0306754   -1.8380335 
C     3.7514480    2.8157633   -1.8666916 
H     1.7324021    3.3476934   -2.6609593 
C     4.4053721    3.5931988   -3.0030117 
O     5.4495757    4.4636104   -2.7187649 
O     4.0102927    3.4332803   -4.3334894 
H     3.2618866    2.7636975   -4.4217695 
C     4.0502686    1.3007320   -1.9530627 
H     4.2008368    3.2347135   -0.9329927 
C     5.5147595    1.0083651   -1.7086936 
H     3.7228275    0.8901029   -2.9315924 
H     3.4551577    0.7590434   -1.1845034 
C     6.4858986    0.8863320   -2.6288737 
C     6.4208057    0.9593525   -3.9833147 
C     7.5729163    0.8082042   -4.6972953 
C     8.7599521    0.5879175   -4.0552910 
C     8.8021162    0.5192174   -2.6944805 
C     7.6487660    0.6717456   -2.0102796 
H     5.4833781    1.1436045   -4.4977294 
H     7.5470888    0.8718259   -5.7824831 
H     9.6744751    0.4742229   -4.6318225 
H     9.7361406    0.3522033   -2.1691232 
N     7.4787162    0.6481235   -0.6000027 
C     6.0689030    0.8815468   -0.4898410 
H     8.1900466    0.4946529    0.1508940 
H     5.5309160    0.9662055    0.4522899 
