48
Energy =
C     0.9580121   -4.0498661   -1.6052954 
C     0.2179687   -3.0040019   -2.0544891 
C     2.1874632   -4.2951425   -2.1339046 
C     2.6672863   -3.4901604   -3.1086169 
C     1.9311177   -2.4442601   -3.5617164 
C     0.6979356   -2.1998839   -3.0410596 
H    -0.7587239   -2.8131983   -1.6167579 
H     3.6501862   -3.6918423   -3.5157990 
H     2.3405016   -1.7893455   -4.3281983 
H     0.5649820   -4.6863285   -0.8198337 
C    -0.1036143   -1.0079013   -3.5138351 
C     0.1645417    0.2473432   -2.6506490 
H    -1.1875962   -1.2559150   -3.4837356 
H     0.1332311   -0.7842984   -4.5787115 
C     1.6384387    0.6297204   -2.6458436 
O     2.9775749   -5.3622391   -1.6919130 
H     2.5410930   -5.9168982   -0.9638779 
O     2.2471549    0.9616652   -3.8542907 
N    -0.6656424    1.3626731   -3.1292859 
H    -0.1127437    0.0333576   -1.5927669 
H    -0.3956856    1.6088925   -4.1119825 
H    -1.6740812    1.0839746   -3.1330782 
N     2.4656003    0.2173434   -1.5430286 
C     3.4186486    1.1736672   -0.9422322 
H     2.3041354   -0.7221768   -1.1152457 
C     2.8174757    2.5411896   -0.5866336 
O     1.5679062    2.9283588   -1.0547226 
O     3.5102846    3.4281822    0.2429364 
H     4.3888377    3.0505677    0.5641114 
C     4.6771027    1.2917001   -1.8326932 
H     3.7323682    0.7544727    0.0385542 
C     5.3786413   -0.0450474   -1.9843744 
H     5.3974814    2.0109474   -1.3867171 
H     4.3940860    1.7149129   -2.8191660 
C     5.5109186   -0.7836697   -3.1014313 
C     5.0951143   -0.5389375   -4.3717822 
C     5.3616077   -1.4674653   -5.3345263 
C     6.0372143   -2.6134507   -5.0210852 
C     6.4518481   -2.8371579   -3.7425091 
C     6.1742328   -1.9046102   -2.8068062 
H     4.5672048    0.3711526   -4.6337858 
H     5.0384595   -1.2910136   -6.3580084 
H     6.2480838   -3.3479350   -5.7945365 
H     6.9902135   -3.7408102   -3.4766068 
N     6.5194117   -1.9463968   -1.4304353 
C     5.9723637   -0.7042615   -0.9725450 
H     7.0403898   -2.6829959   -0.9013314 
H     6.0245052   -0.3542177    0.0559865 
