48
Energy =
C     3.1798630   -5.2360514    1.2198688 
C     2.7359037   -4.8555492   -0.0061784 
C     3.1168397   -4.3728917    2.2739925 
C     2.5752268   -3.1379883    2.0933042 
C     2.1383265   -2.7728894    0.8696628 
C     2.2096598   -3.6141843   -0.1899246 
H     2.8283874   -5.5443784   -0.8420133 
H     2.5361221   -2.4146282    2.9075978 
H     1.7339042   -1.7060954    0.6100383 
H     3.6114977   -6.2239783    1.3468506 
C     1.8370246   -3.1244951   -1.5886395 
C     0.6992977   -2.0562229   -1.6567257 
H     1.5188861   -4.0016072   -2.1942580 
H     2.7475836   -2.7176014   -2.0734938 
C     1.0606846   -0.7152512   -0.9872747 
O     3.6302492   -4.7266928    3.5326680 
H     3.9710442   -5.6814432    3.5846142 
O     1.3528731   -0.6991192    0.3825083 
N     0.2875726   -1.8583433   -3.0569733 
H    -0.1761358   -2.4485074   -1.0918215 
H     1.1187941   -1.5842114   -3.6324954 
H    -0.0844548   -2.7570288   -3.4447747 
N     0.7964319    0.5293660   -1.6629490 
C     1.5250305    1.6819751   -1.0685859 
H    -0.2333045    0.6703063   -1.5415875 
C     0.8132524    2.9996626   -1.3658917 
O     0.6922539    3.9481081   -0.3564263 
O     0.3220709    3.3092634   -2.6364975 
H     0.4910137    2.5626105   -3.2964074 
C     2.9774146    1.7741556   -1.6039576 
H     1.5374187    1.6211108    0.0402188 
C     3.8237677    0.5434352   -1.3558508 
H     3.4873776    2.6429834   -1.1315952 
H     2.9463918    1.9813240   -2.6972706 
C     4.2580484    0.0719940   -0.1748442 
C     4.0473694    0.5383989    1.0817355 
C     4.5398274   -0.1780646    2.1327707 
C     5.2549724   -1.3264353    1.9131933 
C     5.4746061   -1.7622438    0.6392857 
C     4.9644303   -1.0411092   -0.3804983 
H     3.4807766    1.4455150    1.2622858 
H     4.3397771    0.1593344    3.1474861 
H     5.6226459   -1.9143407    2.7559292 
H     6.0227450   -2.6792579    0.4415186 
N     5.0433981   -1.3448582   -1.7630636 
C     4.2738965   -0.2734537   -2.3243342 
H     5.5295963   -2.1380969   -2.2417553 
H     4.0750545   -0.1494864   -3.3869225 
