48
 energy: -9.069959269828 gnorm: 0.000715328151 xtb: 6.6.0 (2ccbbd7)
C            1.32986089906012        4.51910464913769        1.73342314835556
C            0.71741973297149        3.28882925859853        1.68159441287915
C            2.72103841034255        4.61940563042404        1.78155151066660
C            3.46882803733122        3.44253480387313        1.77153404893532
C            2.84934891696296        2.21719824108898        1.71798540281176
C            1.46516518012039        2.12051586929044        1.67933724784474
H           -0.35580791075228        3.22261367311046        1.62853199958355
H            4.54115209589145        3.51972854453922        1.79279006094604
H            3.43778660690406        1.31646486035334        1.67509007841358
H            0.74106502504792        5.41884996627417        1.73242603565515
C            0.80311380193320        0.78501693862777        1.52406638630603
C            0.49627096309254        0.45132019208262        0.05995683370335
H           -0.11208352007029        0.74774540080639        2.12306368663465
H            1.45943008048705        0.00852352949391        1.92800643546514
C            1.74777192527568        0.60970255812811       -0.76781828152679
O            3.36868833379992        5.83897886578708        1.83744584514372
H            2.71406543385236        6.56896600086252        1.79502658383342
O            2.55965227360708       -0.29094041135631       -0.74515978306951
N            0.00294267623282       -0.90665899367356       -0.11205303469206
H           -0.26646489654892        1.14576197862960       -0.32327579400414
H            0.80764119482697       -1.52524839639876       -0.08462007201928
H           -0.62687821372564       -1.16520415039756        0.63794218666217
N            1.91704612132043        1.79209323517749       -1.45851626087258
C            3.24050161393036        2.20597291499279       -1.91583349666795
H            1.30780249366419        2.58343034551110       -1.24642186807907
C            3.14340792857496        3.52335985225673       -2.62532460042749
O            4.15029523851047        4.42994229785677       -2.47796842893630
O            2.03765685612790        3.74093338092317       -3.41344346994498
H            1.47216794895356        2.93296332030680       -3.42458408973435
C            3.92010897960542        1.13773890527989       -2.79382532935012
H            3.84453446036867        2.34441958193134       -1.00711151068372
C            5.38941184922497        0.99192243511261       -2.55255017142729
H            3.73312637225642        1.35328407753911       -3.85037514399969
H            3.44087241634888        0.17307559930100       -2.59356970688522
C            6.33364648802056        2.01223167437840       -2.22453443560372
C            6.22922226442496        3.39791193672281       -2.04688625977488
C            7.33850742230353        4.11346870223153       -1.70954872725006
C            8.58224649572530        3.48346700446918       -1.53956745758543
C            8.71769600350358        2.13314536836477       -1.71314094509944
C            7.58542759495772        1.38480157582702       -2.06069618838889
H            5.14572606240827        3.94365735334141       -2.24804205965444
H            7.25777440984373        5.17947362648992       -1.57668497425602
H            9.44171661285598        4.07534905481674       -1.27176734977863
H            9.66520181595581        1.64046130126481       -1.58844490007723
N            7.40640796676392        0.03422090059474       -2.29732249714818
C            6.08469425203927       -0.19177117840679       -2.59122124748130
H            8.14488423407172       -0.66957292678610       -2.24139053911219
H            5.65693671409332       -1.16020846153981       -2.79492188045999
