48
Energy =
C    -4.4054395   -1.4906344   -1.5795478 
C    -3.0868349   -1.5590651   -1.8936115 
C    -4.7932435   -1.3473398   -0.2839260 
C    -3.8572348   -1.2729247    0.6893035 
C    -2.5374251   -1.3405270    0.3811192 
C    -2.1442816   -1.4876480   -0.9135438 
H    -2.7933480   -1.6696226   -2.9341981 
H    -4.1791364   -1.1575715    1.7183941 
H    -1.7998685   -1.2765922    1.1770332 
H    -5.1488708   -1.5496831   -2.3671253 
C    -0.6727059   -1.5448058   -1.2581048 
C    -0.0086249   -0.1449061   -1.2495683 
H    -0.5119312   -2.0321453   -2.2455728 
H    -0.1584460   -2.2015817   -0.5196886 
C     1.5046869   -0.2208524   -1.4196952 
O    -6.1434638   -1.2724199    0.0735528 
H    -6.7817872   -1.3389501   -0.7116272 
O     2.1019812   -1.4551052   -1.6293886 
N    -0.5978989    0.7179657   -2.2868010 
H    -0.1728499    0.3200715   -0.2501785 
H    -0.6009404    0.2198544   -3.2082516 
H    -1.5933182    0.9320979   -2.0413305 
N     2.2871321    0.9836123   -1.2761885 
C     3.7598577    1.0980687   -1.4623120 
H     1.7350111    1.8588221   -1.1135592 
C     4.0972174    2.4969452   -1.9805958 
O     5.1056142    3.2298627   -1.3665908 
O     3.4585346    3.0411129   -3.0962086 
H     2.7392379    2.4265890   -3.4490784 
C     4.3973006    0.0498992   -2.4218821 
H     4.2437908    1.0903071   -0.4827365 
C     4.7688910   -1.3674273   -1.9611789 
H     5.3461317    0.4697261   -2.8276938 
H     3.7118235   -0.0434572   -3.2936304 
C     5.0290857   -1.9233290   -0.7432903 
C     4.9850062   -1.4217901    0.5263881 
C     5.3093581   -2.2338732    1.5726033 
C     5.6725706   -3.5288070    1.3570457 
C     5.7128012   -4.0232167    0.0930773 
C     5.3873082   -3.2051962   -0.9291736 
H     4.6961500   -0.4198755    0.7628404 
H     5.2749581   -1.8461877    2.5882041 
H     5.9287986   -4.1684280    2.1979089 
H     5.9995106   -5.0520647   -0.0963902 
N     5.3871833   -3.5549634   -2.3001549 
C     4.9830513   -2.3213859   -2.8915169 
H     5.6274615   -4.4661344   -2.7536805 
H     4.8762976   -2.1755159   -3.9639276 
