48
Energy =
C     0.6821311   -4.8403461    0.7383682 
C     0.6389522   -3.5338227    0.3759821 
C     0.9545347   -5.1832623    2.0257550 
C     1.1813057   -4.2144989    2.9420614 
C     1.1406889   -2.9056497    2.5848312 
C     0.8659406   -2.5575892    1.2982683 
H     0.4280650   -3.2749228   -0.6589922 
H     1.3989846   -4.5020595    3.9648788 
H     1.3349231   -2.1428814    3.3343070 
H     0.5018950   -5.6093654   -0.0051452 
C     0.8572450   -1.1040521    0.8794880 
C     2.1560124   -0.7227182    0.1299196 
H     0.7087978   -0.4296091    1.7525609 
H    -0.0232413   -0.9305344    0.2195205 
C     2.0346794    0.5952780   -0.6195464 
O     1.0108479   -6.5203480    2.4318952 
H     0.8133785   -7.1845105    1.6914271 
O     1.0070647    1.4795056   -0.3144790 
N     3.3015814   -0.6933644    1.0550867 
H     2.3364993   -1.4856996   -0.6561415 
H     3.0890464   -0.0720255    1.8724977 
H     3.4816388   -1.6573417    1.4238128 
N     2.7460227    0.7842560   -1.8489487 
C     4.2145854    0.9268804   -1.7794332 
H     2.2033647    0.7585304   -2.7398417 
C     4.6505068    2.3601858   -2.0508472 
O     5.5516308    2.9647600   -1.1832520 
O     4.2400340    3.0606949   -3.1856596 
H     3.5751286    2.5340913   -3.7292588 
C     4.8793440   -0.0564629   -2.7689028 
H     4.5909929    0.7084341   -0.7506017 
C     4.6693386   -1.4949059   -2.3481315 
H     5.9761272    0.1384147   -2.8080754 
H     4.5002842    0.1130934   -3.7991342 
C     3.7292262   -2.3460967   -2.7932582 
C     2.7650291   -2.1700292   -3.7335586 
C     1.8898366   -3.1906516   -3.9645248 
C     1.9863666   -4.3571033   -3.2576590 
C     2.9604543   -4.5112515   -2.3169341 
C     3.8189332   -3.4908981   -2.1121689 
H     2.6803506   -1.2437942   -4.2919507 
H     1.1105706   -3.0759255   -4.7147922 
H     1.2842297   -5.1655764   -3.4467463 
H     3.0468727   -5.4264894   -1.7407552 
N     4.8662805   -3.4334720   -1.1557791 
C     5.3619806   -2.1057362   -1.3704224 
H     5.1825655   -4.1617195   -0.4746816 
H     6.1601448   -1.6461759   -0.7909974 
