48
Energy =
C     3.5648710   -2.6063004    4.0380980 
C     3.8353626   -2.0285286    2.8406055 
C     2.6879549   -2.0209559    4.8969295 
C     2.0868485   -0.8600938    4.5502106 
C     2.3533586   -0.2777774    3.3536152 
C     3.2337667   -0.8575106    2.4923768 
H     4.5349305   -2.5110565    2.1631535 
H     1.3887760   -0.4042217    5.2437486 
H     1.8584128    0.6542720    3.0913802 
H     4.0508344   -3.5381264    4.3057702 
C     3.5159529   -0.2182223    1.1510714 
C     2.4138087   -0.5475213    0.1149365 
H     4.5125345   -0.5369218    0.7783495 
H     3.5899546    0.8862747    1.2899153 
C     2.4753457    0.3840009   -1.0841041 
O     2.3858063   -2.5910026    6.1380266 
H     2.8812400   -3.4558143    6.3250523 
O     1.5412810    1.4057334   -1.1915436 
N     2.4786918   -1.9619881   -0.2941970 
H     1.4153931   -0.3458212    0.5731996 
H     3.4576654   -2.2199742   -0.5590921 
H     2.2057347   -2.5693151    0.5143762 
N     3.2854800    0.0897106   -2.2294574 
C     4.7470377    0.2674428   -2.1277414 
H     2.7879226   -0.2168210   -3.0950194 
C     5.1387725    1.5752593   -1.4392567 
O     6.0065146    1.5348467   -0.3550534 
O     4.6957385    2.8143715   -1.8986744 
H     3.9469478    2.7108300   -2.5701735 
C     5.3622068    0.1703013   -3.5397557 
H     5.1636770   -0.5582816   -1.5099009 
C     6.8742661    0.1905493   -3.4910844 
H     4.9956232    1.0120916   -4.1700113 
H     5.0221247   -0.7640944   -4.0374845 
C     7.6869091   -0.8588921   -3.2916509 
C     7.3872073   -2.1726339   -3.1228725 
C     8.4120333   -3.0498427   -2.9209048 
C     9.7051756   -2.6055654   -2.8863886 
C     9.9811965   -1.2806579   -3.0526596 
C     8.9505733   -0.4332568   -3.2549044 
H     6.3611581   -2.5269922   -3.1427618 
H     8.1994319   -4.1074245   -2.7835641 
H    10.5163818   -3.3104756   -2.7214298 
H    11.0001588   -0.9100061   -3.0203803 
N     9.0176285    0.9750789   -3.4283017 
C     7.6273781    1.3024877   -3.5639173 
H     9.8552202    1.6010282   -3.4569705 
H     7.2349216    2.3158334   -3.6562854 
