48
Energy =
C    -1.4172050    5.7427287   -0.1497965 
C    -1.0137901    5.3819094   -1.3943165 
C    -0.5777062    5.5982100    0.9102219 
C     0.6613213    5.0929583    0.7167673 
C     1.0708641    4.7327069   -0.5252425 
C     0.2335583    4.8709981   -1.5907631 
H    -1.6976525    5.5044478   -2.2298889 
H     1.3207068    4.9778973    1.5697786 
H     2.0692815    4.3227294   -0.6566480 
H    -2.4129539    6.1473828   -0.0044007 
C     0.6863882    4.4671990   -2.9795991 
C     0.3577147    2.9956602   -3.3540982 
H     1.7802510    4.6518788   -3.0817916 
H     0.2228483    5.1440908   -3.7297349 
C     1.0490739    1.9695722   -2.4625033 
O    -0.9621625    5.9630256    2.2048677 
H    -1.9080888    6.3227181    2.2676706 
O     0.6976779    1.8333255   -1.1241881 
N    -1.0979207    2.7714126   -3.4076505 
H     0.7717748    2.8194010   -4.3747195 
H    -1.4973963    2.8037974   -2.4369440 
H    -1.5651004    3.5208212   -3.9697318 
N     2.1355310    1.1870487   -2.9719251 
C     3.4840647    1.5542011   -2.5018284 
H     1.9315424    0.4192061   -3.6483621 
C     3.8766593    2.9383200   -2.9902967 
O     4.2969820    3.8891545   -2.0710144 
O     3.7448067    3.3122128   -4.3276847 
H     3.5042033    2.5233803   -4.9104177 
C     4.5125022    0.4924847   -2.9469376 
H     3.4856720    1.6103393   -1.3865371 
C     4.2386199   -0.8518728   -2.3066273 
H     5.5347272    0.8191869   -2.6466538 
H     4.5280272    0.4127826   -4.0539403 
C     3.6966317   -1.9375874   -2.8849989 
C     3.2824039   -2.1345578   -4.1644584 
C     2.7564695   -3.3485332   -4.4968396 
C     2.6532583   -4.3371189   -3.5580642 
C     3.0763827   -4.1184365   -2.2810191 
C     3.5938504   -2.9099714   -1.9763170 
H     3.3635395   -1.3552785   -4.9146479 
H     2.4178241   -3.5318673   -5.5138757 
H     2.2322248   -5.3018019   -3.8302642 
H     3.0010628   -4.8913788   -1.5237074 
N     4.0850630   -2.4824792   -0.7143240 
C     4.4803281   -1.1382201   -1.0149436 
H     4.1459290   -3.0084402    0.1875248 
H     4.9028719   -0.4457012   -0.2902991 
