48
Energy =
C    -0.1249872   -4.5529153    0.1454468 
C    -0.0999486   -3.7404652   -0.9413411 
C    -0.9115591   -4.2454704    1.2110813 
C    -1.6678478   -3.1250693    1.1819369 
C    -1.6456633   -2.3083426    0.0980042 
C    -0.8629415   -2.6133362   -0.9737711 
H     0.5394364   -3.9991221   -1.7821478 
H    -2.2895834   -2.8912048    2.0395705 
H    -2.2570478   -1.4101229    0.0925643 
H     0.4884940   -5.4473966    0.1596988 
C    -0.8267844   -1.6905192   -2.1737739 
C     0.1177368   -0.4891628   -1.9468023 
H    -1.8563009   -1.3244924   -2.3774249 
H    -0.5144069   -2.2462841   -3.0869866 
C     1.5883045   -0.8581267   -2.0498974 
O    -0.9611706   -5.0598288    2.3466588 
H    -0.3633253   -5.8773129    2.2909601 
O     2.0171118   -2.0470044   -2.6282742 
N    -0.1712681    0.5782877   -2.9245098 
H    -0.0339068   -0.0924145   -0.9143314 
H    -0.2064326    0.1554977   -3.8886280 
H    -1.1441116    0.9445014   -2.7826259 
N     3.8233621    1.4833691   -1.4757474 
C     5.1705175    0.9996581   -1.8692229 
H     3.8320186    1.7273994   -0.4494585 
C     6.1783080    2.1372831   -2.0187391 
O     7.5169821    1.8813434   -1.7533465 
O     5.8234754    3.3929454   -2.5120276 
H     4.8244325    3.4710830   -2.6290352 
C     5.0676030    0.1798996   -3.1744263 
H     5.5726819    0.3327705   -1.0716756 
C     4.2351786    0.9027270   -4.2086676 
H     4.5879958   -0.8010418   -2.9581128 
H     6.0840427   -0.0423313   -3.5716535 
C     2.9748889    1.3107877   -4.0284740 
C     2.2221770    1.1406477   -2.9215356 
C     0.7892146    1.6995649   -2.9192812 
C     0.5227406    2.5833419   -4.1369911 
C     1.4091271    2.6734254   -5.1535781 
C     2.5829165    2.0223565   -5.0828413 
H     2.7995089    0.2349822   -1.6049501 
H     0.6782183    2.3240553   -1.9944606 
H    -0.4247606    3.1124726   -4.2054291 
H     1.1822786    3.2801978   -6.0246841 
N     3.6242821    2.0825942   -6.0544056 
C     4.6635505    1.3408111   -5.4018545 
H     3.6315349    2.5464501   -6.9934307 
H     5.6714040    1.2141816   -5.7927072 
