48
Energy =
C    -0.0523552    4.1636424   -1.7942135 
C     0.8271327    3.5547180   -2.6304798 
C    -1.3522305    4.3138443   -2.1623565 
C    -1.7647943    3.8519585   -3.3639547 
C    -0.8908437    3.2415170   -4.2028716 
C     0.4141762    3.0900319   -3.8426985 
H     1.8621774    3.4356441   -2.3217600 
H    -2.8056226    3.9750362   -3.6444044 
H    -1.2454811    2.8723801   -5.1617650 
H     0.2843429    4.5279111   -0.8290738 
C     1.3877908    2.3961799   -4.7742488 
C     1.5751442    0.8903407   -4.4568297 
H     2.3726515    2.9144063   -4.7574868 
H     1.0471967    2.4984022   -5.8282504 
C     2.1637167    0.6342174   -3.0653692 
O    -2.2821776    4.9384373   -1.3272854 
H    -1.9043396    5.2430956   -0.4365516 
O     1.4120585   -0.0516812   -2.1137117 
N     0.3140950    0.1575306   -4.6650425 
H     2.3129406    0.4762136   -5.1788413 
H    -0.3885874    0.4239634   -3.9352675 
H    -0.0847473    0.3754239   -5.6076663 
N     3.3723061    1.2820610   -2.6150778 
C     4.6024951    0.8768696   -3.3441362 
H     3.4821557    0.9998704   -1.6123501 
C     4.7571783    1.6675482   -4.6352945 
O     4.6219740    1.0478123   -5.8679650 
O     4.9418677    3.0486281   -4.6077930 
H     5.0702313    3.3879815   -3.6665750 
C     4.7292217   -0.6601613   -3.5413950 
H     5.4827387    1.1956972   -2.7418666 
C     4.8699907   -1.3924987   -2.2264141 
H     5.6215757   -0.8778888   -4.1711930 
H     3.8703596   -1.0665429   -4.1174420 
C     5.9818403   -1.4973295   -1.4822441 
C     7.2316307   -1.0192989   -1.7132248 
C     8.2001343   -1.2627596   -0.7841755 
C     7.9082622   -1.9714941    0.3486040 
C     6.6457455   -2.4417518    0.5587564 
C     5.7054608   -2.1888182   -0.3756886 
H     7.4654944   -0.4595482   -2.6144034 
H     9.2098945   -0.8932116   -0.9466168 
H     8.6860366   -2.1622129    1.0838310 
H     6.3973198   -3.0056210    1.4514220 
N     4.3400500   -2.5800372   -0.3488304 
C     3.8695772   -2.0217950   -1.5857926 
H     3.8212304   -3.1268004    0.3767363 
H     2.8419481   -2.0846242   -1.9491996 
