48
Energy =
C    -0.2547141    4.7094374   -0.3045551 
C    -0.3091343    3.6622255    0.5568259 
C     0.9134626    5.3799252   -0.4946499 
C     2.0223582    4.9934935    0.1774444 
C     1.9697648    3.9540344    1.0493667 
C     0.8010000    3.2839306    1.2470435 
H    -1.2473189    3.1299023    0.6908281 
H     2.9565247    5.5185704   -0.0006730 
H     2.8754476    3.6470190    1.5728422 
H    -1.1473583    5.0079379   -0.8433782 
C     0.7484159    2.0981512    2.1868774 
C     1.1291757    0.7819647    1.4731463 
H    -0.2728263    2.0077451    2.6169910 
H     1.4322265    2.2634570    3.0504186 
C     2.5707652    0.8178571    0.9886159 
O     0.9982242    6.4662490   -1.3719561 
H     0.1305276    6.6825379   -1.8488605 
O     3.5872088    1.0615925    1.9123822 
N     0.9164131   -0.3576429    2.3753453 
H     0.4732307    0.6459776    0.5833105 
H     1.5561872   -0.2665052    3.2019987 
H    -0.0669035   -0.3545336    2.7318249 
N     2.8539969    0.8053580   -0.4262419 
C     4.2775608    1.0805187   -0.7416133 
H     2.2581124    1.5521868   -0.8564659 
C     4.5846251    2.5810543   -0.7318842 
O     4.1635328    3.3676751   -1.7977438 
O     5.2220603    3.2070194    0.3400176 
H     5.4161785    2.5614816    1.0942974 
C     4.5956689    0.4619796   -2.1195434 
H     4.9578666    0.6001176    0.0019247 
C     4.6868336   -1.0472299   -2.0413801 
H     5.5655336    0.8602780   -2.4959462 
H     3.8277017    0.7687548   -2.8632291 
C     3.6727281   -1.9277134   -2.0752377 
C     2.3397012   -1.7184778   -2.2194553 
C     1.5067598   -2.7996297   -2.2086395 
C     2.0150433   -4.0605033   -2.0586931 
C     3.3579589   -4.2470098   -1.9168052 
C     4.1596485   -3.1614427   -1.9297334 
H     1.9384773   -0.7168109   -2.3306268 
H     0.4331788   -2.6581395   -2.3121763 
H     1.3465348   -4.9182119   -2.0460333 
H     3.7778064   -5.2395660   -1.7907041 
N     5.5721386   -3.1372525   -1.7852713 
C     5.8316097   -1.7295754   -1.8604270 
H     6.2412811   -3.9319771   -1.6626742 
H     6.8180972   -1.2810083   -1.7627371 
