48
Energy =
C     2.1855606    1.5200132    5.1544461 
C     2.5691190    0.4554502    4.4003439 
C     1.9624710    2.7306828    4.5698685 
C     2.1274857    2.8683927    3.2340669 
C     2.5104619    1.8037067    2.4893664 
C     2.7206130    0.5917175    3.0549565 
H     2.7561955   -0.5003367    4.8824696 
H     1.9513065    3.8331697    2.7710750 
H     2.6663038    1.8078368    1.3223792 
H     2.0624457    1.4021899    6.2256234 
C     3.2034144   -0.5653320    2.1889226 
C     2.5196239   -0.6442701    0.7872738 
H     3.0217219   -1.5214945    2.7273520 
H     4.3042604   -0.4728157    2.0585663 
C     2.9301463    0.4968869   -0.1621583 
O     1.5650185    3.8435340    5.3176789 
H     1.4697991    3.6606198    6.3104457 
O     2.8099013    1.8286239    0.2315738 
N     2.7922415   -1.9604253    0.1846690 
H     1.4172228   -0.5325447    0.9177809 
H     3.8269139   -2.1238865    0.1485452 
H     2.3759913   -2.7157916    0.7794927 
N     3.2095953    0.2298659   -1.5368296 
C     4.5108985    0.6906519   -2.0512144 
H     2.4986813   -0.2814958   -2.1047412 
C     4.4211786    2.0994202   -2.6324336 
O     5.4277173    3.0145055   -2.3475174 
O     3.4200934    2.4669060   -3.5348655 
H     2.7134628    1.7534076   -3.6114466 
C     5.0200858   -0.3335528   -3.0870159 
H     5.2491466    0.7476149   -1.2159499 
C     6.4641317   -0.0816102   -3.4649064 
H     4.3755353   -0.3236156   -3.9929282 
H     4.9383197   -1.3566082   -2.6557174 
C     6.9196105    0.6783597   -4.4748823 
C     6.2378341    1.3835518   -5.4142496 
C     6.9497199    2.0906436   -6.3378924 
C     8.3168423    2.0820090   -6.3112508 
C     8.9805309    1.3674617   -5.3587042 
C     8.2538768    0.6763029   -4.4553775 
H     5.1526308    1.4036132   -5.4329549 
H     6.4255332    2.6714022   -7.0930385 
H     8.8762959    2.6532302   -7.0476184 
H    10.0642315    1.3554480   -5.3189854 
N     8.7463919   -0.1159234   -3.3836808 
C     7.5218759   -0.5634771   -2.7885819 
H     9.7349642   -0.3200215   -3.1113714 
H     7.4634106   -1.1916997   -1.9031207 
