48
 energy: -9.364315472333 gnorm: 0.000778979186 xtb: 6.6.0 (2ccbbd7)
C            5.23401192902335        6.01219933531861        2.12795716735655
C            4.90593030007684        5.00149078584757        1.25627579163173
C            4.85792121102752        5.94073551139747        3.46962476687692
C            4.14778566619730        4.81896982396274        3.89750362005335
C            3.82691761047261        3.81261684262279        3.01877930113826
C            4.19076597940815        3.89183413695499        1.68249418725684
H            5.20931173760768        5.05749469806887        0.22462083761981
H            3.85994089663687        4.76234761733050        4.93221519021876
H            3.28531060129984        2.95333978409145        3.37014654516027
H            5.78793772977992        6.86725979717912        1.78323557257872
C            3.88153966107848        2.80415307766068        0.70255694378357
C            2.60867074766331        1.99141390273759        0.98891876138475
H            4.74477320497226        2.13888640064421        0.62885092549843
H            3.75066661758396        3.33332873134774       -0.38177868957277
C            1.85552387873224        1.64494836972437       -0.27853063053259
O            5.16921092393918        6.93873514614958        4.37318770307703
H            5.66722651705714        7.65528790863257        3.92401482165990
O            0.67043662941694        1.91377963708293       -0.32563371443986
N            2.84582875362914        0.80476474802030        1.80635931446042
H            1.92029082709500        2.63350565605451        1.56320793441988
H            3.16631757570969        0.03217393894474        1.23864809641951
H            3.54977324616907        0.97634127971881        2.51362646221704
N            2.48401846545715        1.07053223190798       -1.36154496571254
C            3.89464385082617        0.67117335181312       -1.46588913550292
H            1.94721920888317        0.93149011161155       -2.21302420033591
C            4.80762859099518        1.85837995346525       -1.65661105732039
O            5.94977718284555        1.66876943208136       -2.01442469112037
O            4.27439055174673        3.17300862258800       -1.36170266446988
H            3.19110689055184        3.23461959172547       -1.33793907500928
C            4.08377575122746       -0.34371932325050       -2.60437034901607
H            4.18134461802033        0.19644733190785       -0.51931207573250
C            3.41728545352650        0.06473202483347       -3.87658486452884
H            3.68607381419606       -1.31761432739972       -2.30003843570283
H            5.15390270723523       -0.48957965349519       -2.78528740903831
C            3.80925302044827        1.11028442643910       -4.76660646313560
C            4.88908584313751        2.01000812937316       -4.77814698014902
C            4.98028867950842        2.92028781549969       -5.79319581112622
C            4.01586818909084        2.96912801862755       -6.81232451735881
C            2.95039544344090        2.11126311786736       -6.81933370152257
C            2.84023639445730        1.17117365119260       -5.78691707975992
H            5.60201541223838        1.99359851399715       -3.97352164212067
H            5.79991318259267        3.61950930595520       -5.80685508717926
H            4.11483559284571        3.70043015933326       -7.59735415914847
H            2.20245304089910        2.14612780080825       -7.59100263617808
N            1.88951790487109        0.20401471071999       -5.51563912935190
C            2.24306659797640       -0.45450670094400       -4.36506177447640
H            1.05320816133160        0.03569657523905       -6.07783220424621
H            1.67149098676253       -1.24734193285791       -3.90971613532121
