48
Energy =
C    -3.2610861    1.2376452   -1.1830794 
C    -2.1471795    1.9474657   -0.8702543 
C    -3.5094204    0.8883663   -2.4740255 
C    -2.6412286    1.2540515   -3.4441864 
C    -1.5267373    1.9638010   -3.1375333 
C    -1.2744021    2.3173726   -1.8470358 
H    -1.9575585    2.2124467    0.1667134 
H    -2.8498644    0.9697921   -4.4694169 
H    -0.8374528    2.2442069   -3.9305023 
H    -3.9507444    0.9472330   -0.3979186 
C    -0.0145331    3.0812067   -1.5055944 
C     1.2293589    2.1605878   -1.5058569 
H    -0.1050112    3.5970861   -0.5250455 
H     0.1136209    3.8939978   -2.2568622 
C     2.5263377    2.9579691   -1.5419377 
O    -4.6445127    0.1525613   -2.8297908 
H    -5.2507305   -0.0721022   -2.0483518 
O     2.5731152    4.1387600   -2.2682251 
N     1.1861443    1.2382314   -0.3568430 
H     1.2303820    1.5766097   -2.4476022 
H     1.0433994    1.7801260    0.5282820 
H     0.3704233    0.5895891   -0.4590920 
N     3.7142301    2.4684094   -0.8980964 
C     5.0212260    2.5016763   -1.5904320 
H     3.6155108    2.0392856    0.0496007 
C     5.4952449    3.9006912   -1.9708435 
O     6.8598629    4.1386429   -2.0668144 
O     4.6212010    4.9168042   -2.3286256 
H     3.5990818    4.5277982   -2.2993962 
C     5.0924535    1.4791084   -2.7509494 
H     5.7865880    2.1739012   -0.8509751 
C     4.1743175    1.7742816   -3.9242905 
H     4.8897355    0.4736067   -2.3307492 
H     6.1376061    1.4433699   -3.1323557 
C     3.1501492    1.0187590   -4.3634251 
C     2.6565485   -0.1558595   -3.8857403 
C     1.5756410   -0.7077515   -4.5080201 
C     1.0126980   -0.0924921   -5.5905516 
C     1.5291753    1.0773812   -6.0604929 
C     2.5979755    1.6053789   -5.4282824 
H     3.0835385   -0.6469594   -3.0179012 
H     1.1566458   -1.6410631   -4.1382142 
H     0.1508040   -0.5394722   -6.0805414 
H     1.0964071    1.5772037   -6.9209023 
N     3.2758607    2.8072135   -5.7576977 
C     4.2879604    2.8395790   -4.7415963 
H     3.0978384    3.4812844   -6.5380619 
H     5.0383801    3.6258039   -4.6480521 
