48
Energy =
C     3.0452468   -2.8742432    0.8846749 
C     2.5558085   -1.7304781    1.3939910 
C     3.0966838   -3.0299293   -0.4506266 
C     2.7720681   -1.9922486   -1.2465790 
C     2.6929379   -0.6917357   -0.8180188 
C     2.2725473   -0.6690546    0.5814941 
H     2.3285441   -1.6913228    2.4569383 
H     2.6958385   -2.1847849   -2.3091199 
H     2.7949209    0.4320073   -0.2820963 
H     3.2679926   -3.7072586    1.5423304 
C     1.2558961    0.3552009    1.2574064 
C     0.5286097    1.2841929    0.2448573 
H     1.8213671    0.9821076    1.9812820 
H     0.4786829   -0.1967493    1.8326319 
C     1.5314997    1.8850521   -0.7223736 
O     3.4230935   -4.2588770   -1.0370126 
H     3.6244411   -4.9928555   -0.3671238 
O     1.7999115    3.0956738   -0.6492344 
N    -0.4934477    0.5155504   -0.4721717 
H     0.0438907    2.1254981    0.7939127 
H    -0.2649837   -0.4603819   -0.7763582 
H    -1.4345574    0.9493793   -0.6132160 
N     2.4285034    0.9695384   -1.3972119 
C     3.5947009    1.6406103   -2.0598070 
H     1.7454778    0.6959931   -2.1888206 
C     3.2888563    3.1301143   -2.2263735 
O     3.8007840    3.8673633   -3.2910804 
O     2.5730203    3.6807768   -1.3821200 
H     2.7252665    3.4035535   -0.4308859 
C     3.9393014    0.9414931   -3.4013211 
H     4.4727585    1.5843624   -1.3760454 
C     5.3963654    1.1219615   -3.7656529 
H     3.2850797    1.3287524   -4.2149924 
H     3.7294849   -0.1457856   -3.3351642 
C     6.4279377    0.4035070   -3.2958091 
C     6.4364125   -0.6391931   -2.4256924 
C     7.6355653   -1.2005675   -2.0994531 
C     8.7951525   -0.7143978   -2.6377677 
C     8.7622194    0.3373775   -3.5050916 
C     7.5629821    0.8735262   -3.8146803 
H     5.5174131   -1.0228782   -1.9910249 
H     7.6683034   -2.0384166   -1.4065100 
H     9.7472150   -1.1665608   -2.3712722 
H     9.6730136    0.7382538   -3.9368223 
N     7.3097363    1.9730214   -4.6779411 
C     5.8806522    2.0738007   -4.5830838 
H     7.9833104    2.5480327   -5.2344388 
H     5.2780932    2.8378868   -5.0748201 
