48
Energy =
C    -2.4279461    1.8594586   -1.2250700 
C    -1.7960254    0.7282925   -1.6304801 
C    -3.0074981    2.6827241   -2.1390298 
C    -2.9461779    2.3708458   -3.4536645 
C    -2.3139371    1.2423349   -3.8648914 
C    -1.7425175    0.4089898   -2.9534636 
H    -1.3190937    0.0828704   -0.8923390 
H    -3.4071684    3.0397580   -4.1722410 
H    -2.2684158    1.0135902   -4.9264657 
H    -2.4646957    2.1066107   -0.1693025 
C    -1.0151818   -0.8378998   -3.4080730 
C     0.4799253   -0.5637659   -3.6793474 
H    -1.4934052   -1.2362730   -4.3295195 
H    -1.1109268   -1.6370008   -2.6381541 
C     1.1995369   -0.0967651   -2.4265145 
O    -3.6685952    3.8534584   -1.7552953 
H    -3.6582146    4.0245998   -0.7556810 
O     1.1066501   -0.8284219   -1.2445787 
N     1.1169024   -1.7736588   -4.2308621 
H     0.5705611    0.2679056   -4.4186945 
H     0.9335432   -2.5825976   -3.5881747 
H     0.6750146   -2.0091555   -5.1512571 
N     1.9853047    1.1037405   -2.4483600 
C     3.3878089    0.8135673   -2.0691371 
H     1.5475720    1.7145295   -1.7198697 
C     4.1314633    2.0888937   -1.6600288 
O     4.9632268    2.7488512   -2.5581434 
O     3.9731922    2.6337130   -0.3856451 
H     3.3147091    2.1094709    0.1714037 
C     4.0940018    0.0595843   -3.2349636 
H     3.4012603    0.1830016   -1.1451608 
C     4.8837782   -1.1187974   -2.7210384 
H     4.7342108    0.7301530   -3.8459430 
H     3.3482915   -0.3177252   -3.9683270 
C     6.1971444   -1.1613260   -2.4510463 
C     7.1494432   -0.2040713   -2.5955638 
C     8.4276047   -0.5015786   -2.2242857 
C     8.7305690   -1.7341212   -1.7150135 
C     7.7558345   -2.6762978   -1.5702433 
C     6.4995155   -2.3599104   -1.9480401 
H     6.9114904    0.7824026   -2.9848959 
H     9.2077477    0.2492430   -2.3272636 
H     9.7511605   -1.9606752   -1.4168380 
H     7.9774577   -3.6544802   -1.1572121 
N     5.3417629   -3.1794413   -1.8523437 
C     4.3342621   -2.2916796   -2.3612830 
H     5.2576235   -4.1626589   -1.5040133 
H     3.2615241   -2.5028091   -2.3882524 
