48
 energy: -9.072011620508 gnorm: 0.000286640771 xtb: 6.6.0 (2ccbbd7)
C            4.49201461461901        3.24785002274536        0.61806388511578
C            3.21191906713627        3.42005359651828        0.14671147248629
C            5.51408759065486        4.11511652632085        0.23017693844614
C            5.20405805320640        5.14640029544748       -0.65561913198413
C            3.92416689747928        5.30649254163759       -1.12957900323390
C            2.90643328989569        4.45443368720870       -0.72612774026845
H            2.43164430440529        2.73710059901063        0.43693769925429
H            5.99335999425956        5.80855223951487       -0.96303914935638
H            3.70173888973426        6.09748210670032       -1.82505692100664
H            4.71878730480641        2.43972287696069        1.28996596990150
C            1.51805489675124        4.61580035354493       -1.26383384820059
C            1.23174594965370        3.73414388658707       -2.48316824048131
H            1.34534869806653        5.66637848140554       -1.51742461556898
H            0.79256891624931        4.37416775912044       -0.48112162811546
C            1.21803208835348        2.27421753721943       -2.09362422136787
O            6.80873084874517        3.97710572891279        0.69433421518088
H            6.86719583376607        3.19953684621324        1.29061083350655
O            0.25472632848748        1.89359673196016       -1.45975034929403
N           -0.06202993338830        4.03241675160052       -3.07889046888176
H            1.99945206316759        3.90897685741704       -3.25011132755436
H           -0.77380196846078        3.60214420905044       -2.49599399616319
H           -0.23206055524148        5.03020827055409       -3.12079761485634
N            2.24711294712787        1.42347124997706       -2.43850792734749
C            3.56438925891162        1.86560879452041       -2.92186748779914
H            2.21231418334045        0.46728799545910       -2.09361651350226
C            3.45584923237632        2.45826486875191       -4.29459032933139
O            4.35323847476766        3.40782710993587       -4.68123877954842
O            2.44166013103496        2.01247060639076       -5.10923819714858
H            1.83161735032339        1.43291081244031       -4.59739185151294
C            4.60877899168394        0.72538807882792       -2.87558837630587
H            3.89353527041897        2.65823721227884       -2.23718180270334
C            5.93373817163337        1.14346491848611       -2.32551387664983
H            4.73967306984984        0.30918255724589       -3.87964797077194
H            4.22574070508215       -0.09672210465914       -2.26255845181912
C            6.63609233857553        2.35225532886607       -2.60296838230673
C            6.34550774619543        3.45623737500969       -3.41157797226937
C            7.22261955057513        4.49778200075963       -3.45423000758781
C            8.40684323363947        4.47664665718394       -2.69844831817163
C            8.71811506856427        3.40817638110388       -1.90213009466122
C            7.82661791056221        2.32863712906290       -1.85017038809541
H            5.30364420433457        3.43749131736393       -4.06490944461954
H            7.00161052089938        5.34858561057873       -4.07670809247250
H            9.07828838856518        5.31776486981375       -2.74623157349009
H            9.61698837910811        3.38616000643832       -1.31265183811756
N            7.84907821608837        1.13548194444514       -1.15061257170184
C            6.70769723671892        0.42965802309529       -1.44342359108209
H            8.59625351773888        0.84770484889322       -0.51606390003736
H            6.45890074750160       -0.53545412229456       -1.03284685677799
