48
Energy =
C     5.3069219   -3.2317131    3.9572660 
C     4.2084133   -2.5450184    3.5511348 
C     6.0518036   -3.9254836    3.0547247 
C     5.6909593   -3.9278761    1.7515852 
C     4.5933442   -3.2449080    1.3416913 
C     3.8445971   -2.5500631    2.2395297 
H     3.6263305   -1.9889220    4.2816936 
H     6.2939321   -4.4819467    1.0412358 
H     4.3188001   -3.2534537    0.2913248 
H     5.5894555   -3.2221036    5.0045636 
C     2.6403849   -1.7676934    1.7688311 
C     3.0446254   -0.4398405    1.0869163 
H     1.9369005   -1.5620144    2.6068765 
H     2.0668514   -2.3958500    1.0499056 
C     1.8827489    0.1442098    0.3021355 
O     7.1904446   -4.6413784    3.4381519 
H     7.3937799   -4.5906844    4.4306390 
O     0.6325464    0.2593659    0.9026333 
N     3.5307691    0.5289704    2.0797053 
H     3.8558346   -0.6348304    0.3479829 
H     2.7807488    0.7191469    2.7872049 
H     4.3626239    0.1412581    2.5812523 
N     2.0047892    0.3739379   -1.1112267 
C     2.8295084    1.5806074   -1.3839661 
H     1.0269829    0.4997305   -1.4642257 
C     1.9986161    2.8556580   -1.5638990 
O     2.2439250    3.9471134   -0.7407732 
O     1.0498009    2.9847572   -2.5801220 
H     0.9610956    2.1421122   -3.1244725 
C     3.7080189    1.3040002   -2.6198545 
H     3.5217275    1.8087831   -0.5343731 
C     4.7937604    0.2946723   -2.3125090 
H     4.1888049    2.2503283   -2.9589275 
H     3.0861792    0.9480581   -3.4680803 
C     4.7118278   -1.0426166   -2.4088390 
C     3.6734652   -1.8271293   -2.7951086 
C     3.8534015   -3.1804238   -2.8126694 
C     5.0550117   -3.7215484   -2.4460353 
C     6.0793749   -2.9139782   -2.0490858 
C     5.8750782   -1.5803310   -2.0383825 
H     2.7177093   -1.3920069   -3.0729963 
H     3.0385215   -3.8332310   -3.1205013 
H     5.1943828   -4.8000541   -2.4666063 
H     7.0371461   -3.3255937   -1.7487427 
N     6.7985114   -0.5748430   -1.6497588 
C     6.0168737    0.6097081   -1.8514736 
H     7.7820669   -0.6740794   -1.3085258 
H     6.3676206    1.6198329   -1.6503563 
