48
Energy =
C    -4.5087139    3.3378583   -1.4595554 
C    -3.2246378    3.5863184   -1.8221808 
C    -5.1174480    2.1846930   -1.8457932 
C    -4.4356441    1.2872455   -2.5932026 
C    -3.1515556    1.5302640   -2.9585163 
C    -2.5387427    2.6841604   -2.5771182 
H    -2.7510645    4.5106198   -1.5016456 
H    -4.9315695    0.3711908   -2.8945228 
H    -2.6195443    0.7958418   -3.5575604 
H    -5.0470080    4.0630073   -0.8588734 
C    -1.1014713    2.9463005   -2.9696683 
C    -0.0954601    2.1529129   -2.0975386 
H    -0.8671366    4.0335283   -2.9197008 
H    -0.9703861    2.6642877   -4.0391798 
C     1.3368403    2.2750363   -2.6092179 
O    -6.4386774    1.8971744   -1.4875207 
H    -6.8818113    2.6216214   -0.9333249 
O     1.6000571    3.0643956   -3.7220140 
N    -0.1777081    2.5810019   -0.6914130 
H    -0.3442742    1.0688235   -2.1618420 
H    -0.0700936    3.6212885   -0.6254752 
H    -1.1156867    2.3321531   -0.2980842 
N     2.3904533    1.5557450   -1.9317134 
C     3.8375424    1.6620583   -2.2531399 
H     2.0822788    0.8211380   -1.2541306 
C     4.2495787    2.7177002   -3.2924416 
O     4.8537107    3.8921457   -2.8547245 
O     4.1215111    2.5077126   -4.6675361 
H     3.4841511    1.7498073   -4.8539813 
C     4.3794219    0.2481219   -2.5773559 
H     4.3392236    2.0012838   -1.3189395 
C     5.8945203    0.2143187   -2.6028923 
H     3.9516725   -0.1248648   -3.5308746 
H     4.0364156   -0.4658111   -1.7957178 
C     6.6971642    0.1936331   -3.6813939 
C     6.3881004    0.1720311   -5.0038920 
C     7.4078971    0.1577207   -5.9093274 
C     8.7078298    0.1622487   -5.4862405 
C     8.9959704    0.1814075   -4.1543258 
C     7.9697737    0.1962570   -3.2778255 
H     5.3601319    0.1711573   -5.3479380 
H     7.1845390    0.1479644   -6.9733861 
H     9.5145756    0.1543655   -6.2147432 
H    10.0216135    0.1880339   -3.8017077 
N     8.0553132    0.2203402   -1.8602970 
C     6.6680838    0.2334370   -1.5024763 
H     8.9027663    0.2222533   -1.2477291 
H     6.2984807    0.2660152   -0.4801827 
