48
Energy =
C     2.8090617   -0.6442694    3.2806641 
C     2.0421651    0.2100090    2.5589010 
C     2.4437760   -1.9464704    3.4110847 
C     1.3034885   -2.3810742    2.8314265 
C     0.5232830   -1.5270186    2.1230283 
C     0.8968592   -0.2267942    1.9616556 
H     2.3449901    1.2508981    2.4844264 
H     1.0144529   -3.4186270    2.9544525 
H    -0.4094931   -1.8931938    1.7101839 
H     3.7164021   -0.2831118    3.7527548 
C     0.0086263    0.7514803    1.2137590 
C    -0.1074791    0.5149140   -0.3204245 
H     0.3647976    1.7935207    1.3756304 
H    -1.0026908    0.7318614    1.6756404 
C     1.2275432    0.3960647   -1.0648938 
O     3.2240397   -2.8562988    4.1319543 
H     4.0261982   -2.4393988    4.5916718 
O     1.2329507   -0.4040118   -2.2006643 
N    -1.0159892   -0.6085077   -0.6190186 
H    -0.5704249    1.4302021   -0.7538587 
H    -0.5085758   -1.5206122   -0.5371688 
H    -1.8423887   -0.6198652    0.0219654 
N     2.1999650    1.4604362   -0.9022323 
C     3.4737293    1.5450554   -1.6835727 
H     2.4391898    1.5054849    0.1111553 
C     3.6420761    2.9742541   -2.1918808 
O     4.8753896    3.6005935   -2.0623404 
O     2.6205848    3.6403154   -2.8689182 
H     1.7667503    3.1009258   -2.8663791 
C     3.6566973    0.5740712   -2.8793623 
H     4.3474420    1.4210037   -1.0115583 
C     3.8816944   -0.9233531   -2.6498386 
H     4.5479864    0.9147967   -3.4547965 
H     2.7989328    0.7102470   -3.5764125 
C     4.1583167   -1.6564543   -1.5389747 
C     4.2785548   -1.3112793   -0.2251238 
C     4.6002410   -2.2772809    0.6825686 
C     4.7736118   -3.5697958    0.2882821 
C     4.6351190   -3.9074926   -1.0199447 
C     4.3307497   -2.9364574   -1.9052339 
H     4.1173726   -0.3140220    0.1394136 
H     4.7181389   -2.0212557    1.7312185 
H     5.0192777   -4.3327405    1.0239834 
H     4.7684891   -4.9320167   -1.3510258 
N     4.1661841   -3.1053595   -3.3009747 
C     3.8811361   -1.7657842   -3.7026535 
H     4.2434988   -3.9735948   -3.8793598 
H     3.6950113   -1.4712834   -4.7335363 
