48
Energy =
C     3.7860892    4.9667527    3.5688939 
C     3.7198509    4.3468660    2.3639247 
C     2.6457288    5.3309789    4.2134278 
C     1.4455369    5.0710094    3.6473164 
C     1.3728843    4.4508985    2.4417373 
C     2.5119758    4.0889388    1.7901652 
H     4.6412022    4.0575835    1.8630191 
H     0.5451344    5.3657165    4.1757240 
H     0.3993999    4.2456791    2.0038095 
H     4.7539840    5.1683700    4.0151513 
C     2.4341437    3.3791792    0.4567237 
C     2.1309105    1.8696993    0.6252761 
H     3.3862578    3.5169177   -0.1036162 
H     1.6453236    3.8589738   -0.1653891 
C     1.7733387    1.1915912   -0.6954323 
O     2.6771237    5.9705759    5.4563743 
H     3.6133690    6.1309297    5.8126508 
O     0.4938547    0.6680244   -0.8385759 
N     3.2366350    1.1776183    1.3101325 
H     1.2092773    1.7602137    1.2460753 
H     4.1631663    1.5439794    0.9871594 
H     3.1899405    1.3856278    2.3352910 
N     2.5906630    1.2870515   -1.8761338 
C     3.8162283    0.4554801   -1.8083715 
H     2.7942611    2.2918285   -2.0755441 
C     5.0793848    1.2547705   -1.4761372 
O     5.1826997    2.5938696   -1.8344480 
O     6.1758112    0.6512629   -0.8606058 
H     5.9993446   -0.3160668   -0.6306234 
C     3.9723314   -0.2961015   -3.1424824 
H     3.7125532   -0.3273882   -1.0198541 
C     4.0655718    0.6379129   -4.3317082 
H     3.0896563   -0.9609234   -3.2739536 
H     4.8613963   -0.9620620   -3.1057535 
C     5.1785933    1.1705987   -4.8624357 
C     6.4792344    1.0135430   -4.5042365 
C     7.4327289    1.6833330   -5.2131454 
C     7.0772994    2.4900922   -6.2584686 
C     5.7652208    2.6347937   -6.5989409 
C     4.8402121    1.9626779   -5.8819343 
H     6.7648295    0.3876357   -3.6637036 
H     8.4797742    1.5826023   -4.9373166 
H     7.8431466    3.0248794   -6.8146004 
H     5.4654448    3.2765774   -7.4203078 
N     3.4312027    1.9855038   -6.0645312 
C     3.0056882    1.1073977   -5.0133255 
H     2.8627948    2.5004051   -6.7756843 
H     1.9672994    0.8772757   -4.7799951 
