48
 energy: -9.365105827264 gnorm: 0.000551165210 xtb: 6.6.0 (2ccbbd7)
C            3.42510083151916        5.94070943210162        2.74841430055069
C            3.25506391546181        4.96729244160213        1.79294126631753
C            4.47083436002908        5.85766106212488        3.66854125137705
C            5.33265511840329        4.76371654900354        3.59231985920931
C            5.15617906645014        3.79396818930892        2.63493169208734
C            4.11798606877303        3.88442742974723        1.71978955511878
H            2.44147967436892        5.03754872390153        1.09099786043043
H            6.13878962822017        4.70052490613851        4.30128798302275
H            5.82916635412635        2.95531209354835        2.58618338996094
H            2.75076983799182        6.77695254391219        2.79662947731438
C            3.90461466708229        2.82408330300058        0.69083634825609
C            2.73749845111189        1.88533358688438        1.03104472187600
H            4.82549012089085        2.25052555368349        0.56340883408874
H            3.69448015888019        3.36866878589745       -0.37265185368064
C            1.95192900878151        1.46125024357348       -0.19227586897783
O            4.67074459545311        6.81914582147296        4.64027746416007
H            3.99509038514485        7.52625575371842        4.55809583847232
O            0.75063921913329        1.65233865153351       -0.18271380461180
N            3.13633263785334        0.74643111180596        1.84645776162122
H            2.01863450977072        2.45734933774710        1.64228365683800
H            3.68350307742151        0.08785060161523        1.30994887181702
H            3.70067726371544        1.04970499738527        2.63063473036658
N            2.55931774564834        0.91046706476773       -1.29889905340055
C            3.99275788545554        0.66088972134746       -1.49148653700572
H            1.99358468600597        0.74569899451048       -2.12701789991250
C            4.77403141138036        1.93597220723451       -1.69505179298218
O            5.92316496773465        1.85664474331486       -2.07214726872879
O            4.12220025960529        3.19868842414566       -1.39717060217168
H            3.05039727809897        3.15951045317749       -1.26976429263066
C            4.21742843508007       -0.29964076511174       -2.66898554225392
H            4.37662242215497        0.19143023787816       -0.57746716027868
C            3.48033084279947        0.09739456611695       -3.90537160134889
H            3.90365037997110       -1.30954815857264       -2.38489450333847
H            5.28848517616645       -0.35850928267605       -2.88896828283004
C            3.78187079775576        1.17857726092745       -4.78804888452272
C            4.80588981913346        2.14114039766823       -4.81657540406914
C            4.81629292335835        3.06587506184050       -5.82263230221639
C            3.82391281813973        3.06821645838849       -6.81576693341453
C            2.80980684502532        2.15022113658207       -6.80415102719560
C            2.78235858742711        1.19489594287834       -5.78020567228670
H            5.53732046071598        2.16149728557402       -4.02865058620596
H            5.59212656405238        3.81309985484087       -5.84876883726440
H            3.85996808843618        3.81106520676894       -7.59538099002847
H            2.04116803398758        2.14873742722613       -7.55600906853375
N            1.89890102096781        0.16908800780644       -5.49707886317322
C            2.32461179065419       -0.48343162733037       -4.36772556802366
H            1.05952671290714       -0.04364843411353       -6.03930326055825
H            1.81780446094567       -1.31907873467830       -3.91230178775377
