48
Energy =
C    -4.5434620    1.0466792   -0.3989178 
C    -3.4901171    1.9026033   -0.4105226 
C    -4.6988643    0.1404437   -1.4009633 
C    -3.7980387    0.0974346   -2.4087095 
C    -2.7428110    0.9505264   -2.4250940 
C    -2.5841502    1.8610796   -1.4260028 
H    -3.3764686    2.6192723    0.3987990 
H    -3.9334882   -0.6294637   -3.2019074 
H    -2.0287219    0.9008966   -3.2428690 
H    -5.2602916    1.0882253    0.4140368 
C    -1.3982740    2.7995607   -1.4358624 
C    -0.0980527    2.1048814   -0.9681126 
H    -1.5948096    3.6951252   -0.8034082 
H    -1.2625823    3.1873739   -2.4710223 
C     1.1057172    2.9861616   -1.2325054 
O    -5.7714100   -0.7570532   -1.4184114 
H    -6.4053925   -0.6562859   -0.6333080 
O     1.2249285    4.2154359   -0.5905780 
N    -0.1741424    1.7503407    0.4578944 
H     0.0613131    1.1763777   -1.5634998 
H    -0.3854491    2.6084070    1.0224649 
H    -0.9537970    1.0699423    0.6139494 
N     1.9602639    2.7026602   -2.3487399 
C     3.3955467    2.7048475   -1.9556276 
H     1.7510314    3.4226249   -3.0799473 
C     4.2223352    3.7765862   -2.6773702 
O     5.4681179    3.4642650   -3.2058525 
O     3.8134992    5.1089346   -2.7143841 
H     2.9701748    5.2623006   -2.1784246 
C     3.9508880    1.2703598   -2.1373776 
H     3.5352783    2.9703274   -0.8783219 
C     3.8092694    0.7402451   -3.5551090 
H     3.3929896    0.5897724   -1.4571078 
H     5.0097986    1.2325221   -1.8046791 
C     4.7835091    0.5487755   -4.4647969 
C     6.1206518    0.7780671   -4.3827934 
C     6.8997081    0.4834989   -5.4632801 
C     6.3407095   -0.0374436   -6.5964200 
C     4.9989366   -0.2661306   -6.6565178 
C     4.2484479    0.0376390   -5.5768445 
H     6.5721258    1.1994302   -3.4907236 
H     7.9703872    0.6705530   -5.4244618 
H     6.9679493   -0.2674966   -7.4541970 
H     4.5391244   -0.6804336   -7.5473629 
N     2.8470394   -0.1379872   -5.4357771 
C     2.6459255    0.3366259   -4.0990705 
H     2.1546034   -0.5186283   -6.1209803 
H     1.6828596    0.3571007   -3.5956775 
