48
Energy =
C    -2.8833333    4.3853243   -1.5403606 
C    -2.3841861    3.7400255   -2.6283855 
C    -2.3282878    4.1884675   -0.3113759 
C    -1.2780209    3.3459877   -0.1798261 
C    -0.7872514    2.7058740   -1.2683293 
C    -1.3191174    2.9034792   -2.4957424 
H    -2.8458227    3.8958874   -3.5997142 
H    -0.8380650    3.1921339    0.7989315 
H     0.1337473    1.9750107   -1.2758632 
H    -3.7295764    5.0541081   -1.6545307 
C    -0.7744864    2.1147457   -3.6778349 
C     0.7824685    1.9894292   -3.7108979 
H    -1.1120921    2.5955277   -4.6222007 
H    -1.2229943    1.0969139   -3.6553564 
C     1.3593333    1.0937060   -2.6013837 
O    -2.8173201    4.8369733    0.8269735 
H    -3.6031675    5.4512005    0.6443119 
O     0.9957454    1.2896657   -1.2665439 
N     1.1946783    1.5021173   -5.0377061 
H     1.2405942    2.9938656   -3.5351807 
H     0.6756681    0.6234045   -5.2733117 
H     0.9634678    2.2163511   -5.7679236 
N     2.5371892    0.3255742   -2.8531686 
C     3.7588254    0.7207619   -2.1284025 
H     2.4843874   -0.4662180   -3.5306559 
C     4.1546807    2.1657971   -2.4411912 
O     5.0904987    2.4357956   -3.4334357 
O     3.5872619    3.2420758   -1.7571136 
H     2.9025382    2.9258386   -1.0840138 
C     4.9040704   -0.2657143   -2.4568901 
H     3.5592660    0.6715765   -1.0346300 
C     4.6241550   -1.6541382   -1.9256761 
H     5.8633465    0.0993854   -2.0268236 
H     5.0533459   -0.3023300   -3.5599369 
C     4.7235639   -2.0625123   -0.6508499 
C     5.1063973   -1.3757000    0.4562127 
C     5.1210137   -2.0312394    1.6524754 
C     4.7583413   -3.3481711    1.7229378 
C     4.3792787   -4.0176499    0.5972071 
C     4.3728891   -3.3470806   -0.5739720 
H     5.3950825   -0.3305903    0.4014543 
H     5.4213403   -1.5037752    2.5547688 
H     4.7711357   -3.8636543    2.6800388 
H     4.0880315   -5.0617955    0.6351619 
N     4.0146374   -3.8532225   -1.8520598 
C     4.2026398   -2.6912839   -2.6703949 
H     3.7019365   -4.8142514   -2.1204134 
H     4.0224805   -2.6594683   -3.7424648 
