48
Energy =
C    -1.9473696   -0.0503415   -2.2683543 
C    -0.9038466    0.8117231   -2.1773019 
C    -2.5669243   -0.4937282   -1.1422509 
C    -2.1402583   -0.0664540    0.0680868 
C    -1.0969113    0.7962203    0.1649446 
C    -0.4725769    1.2417052   -0.9592595 
H    -0.4096934    1.1496431   -3.0847406 
H    -2.6432346   -0.4277205    0.9584409 
H    -0.7614227    1.1194961    1.1467842 
H    -2.2810492   -0.3880071   -3.2433741 
C     0.7296260    2.1554712   -0.8603223 
C     2.0469347    1.3775414   -1.0843058 
H     0.7590705    2.6821655    0.1203467 
H     0.6347586    2.9558082   -1.6287477 
C     3.2438100    2.2927889   -1.2781677 
O    -3.6381241   -1.3909315   -1.2002892 
H    -3.9200423   -1.6371658   -2.1427979 
O     3.2643735    3.5579025   -0.7047396 
N     2.2919203    0.4358936    0.0201987 
H     1.9483075    0.8193521   -2.0366263 
H     2.2441492    0.9457783    0.9348438 
H     1.5462399   -0.2991705    0.0280740 
N     4.3250015    1.9141060   -2.1429185 
C     5.1631274    0.7676133   -1.7342505 
H     4.4041693    2.3752519   -3.0767505 
C     6.5595987    1.2307276   -1.3217119 
O     7.6807180    0.5368671   -1.7647201 
O     6.7477612    2.2891175   -0.4339819 
H     5.8789764    2.7569421   -0.2123860 
C     5.2167950   -0.2681563   -2.8855876 
H     4.7587804    0.2721741   -0.8224064 
C     3.8455433   -0.7774023   -3.2688505 
H     5.8499168   -1.1337480   -2.5866284 
H     5.7160730    0.1883924   -3.7702397 
C     3.0994039   -1.6667746   -2.5941041 
C     3.3798247   -2.3532230   -1.4570555 
C     2.4169410   -3.1686773   -0.9387315 
C     1.2009726   -3.2806308   -1.5549030 
C     0.9429153   -2.5833178   -2.6973916 
C     1.9149185   -1.7913867   -3.1962155 
H     4.3402760   -2.2550339   -0.9593943 
H     2.6154466   -3.7274827   -0.0269869 
H     0.4355782   -3.9266777   -1.1312207 
H    -0.0190429   -2.6554927   -3.1934525 
N     1.8391120   -0.9593959   -4.3455250 
C     3.1298617   -0.3344464   -4.3180606 
H     1.0479493   -0.8281728   -5.0169901 
H     3.4649548    0.4192794   -5.0276884 
