48
Energy =
C     0.0572044   -1.9018403   -3.8900628 
C    -0.1330002   -2.0396821   -2.5536320 
C    -0.6776053   -1.0008941   -4.5953942 
C    -1.5959032   -0.2412722   -3.9569131 
C    -1.7885309   -0.3731577   -2.6209925 
C    -1.0589045   -1.2759345   -1.9093765 
H     0.4663289   -2.7589988   -2.0020805 
H    -2.1726223    0.4773363   -4.5280079 
H    -2.5260880    0.2523903   -2.1259449 
H     0.7988616   -2.5128379   -4.3929972 
C    -1.2502554   -1.4078728   -0.4115750 
C    -0.4449894   -0.3654123    0.3954276 
H    -0.9555830   -2.4293076   -0.0809991 
H    -2.3306555   -1.3106128   -0.1674459 
C     1.0467183   -0.4691288    0.1204568 
O    -0.5099671   -0.8371563   -5.9740386 
H     0.2156761   -1.4219783   -6.3735606 
O     1.8033355   -1.3801860    0.8558034 
N    -0.9675849    0.9865390    0.1288983 
H    -0.5601599   -0.6042572    1.4798859 
H    -1.9648672    1.0400184    0.4446524 
H    -0.4428842    1.6817016    0.7125636 
N     1.6436850    0.2277249   -0.9855201 
C     3.1048121    0.1513995   -1.1475608 
H     1.0332063    0.8053751   -1.6096261 
C     3.6462345    1.4266500   -1.7916104 
O     3.7993303    1.5046901   -3.1718581 
O     3.9371464    2.5559644   -1.0255473 
H     3.7089628    2.4202212   -0.0516968 
C     3.4403374   -1.1161048   -1.9604742 
H     3.5912497    0.0811131   -0.1476994 
C     4.9169245   -1.4315108   -1.9136793 
H     3.1027151   -0.9919518   -3.0143430 
H     2.8724598   -1.9808041   -1.5552111 
C     5.5750137   -2.0312230   -0.9096806 
C     5.1086300   -2.5115933    0.2715971 
C     5.9995734   -3.0745867    1.1388116 
C     7.3269873   -3.1449081    0.8156868 
C     7.7718416   -2.6508805   -0.3750028 
C     6.8709767   -2.1011139   -1.2159522 
H     4.0539628   -2.4450726    0.5306840 
H     5.6537215   -3.4649945    2.0939034 
H     8.0325307   -3.5916442    1.5123413 
H     8.8222117   -2.6918426   -0.6440668 
N     7.1244633   -1.5169551   -2.4855478 
C     5.8056533   -1.1000207   -2.8657054 
H     8.0260054   -1.4208732   -3.0072013 
H     5.5677866   -0.5604927   -3.7816087 
