48
Energy =
C     0.6609165   -2.5315848    3.4938726 
C     0.1675345   -1.6425520    2.5951140 
C     1.5639136   -2.1300782    4.4273293 
C     1.9634306   -0.8391242    4.4575927 
C     1.4712575    0.0543286    3.5632128 
C     0.5775832   -0.3424508    2.6148280 
H    -0.5596225   -1.9801745    1.8622093 
H     2.6818866   -0.5286398    5.2082359 
H     1.7995529    1.0886811    3.6148176 
H     0.3291809   -3.5639609    3.4657032 
C     0.0194272    0.6514528    1.6099123 
C     0.7711111    0.7135884    0.2493404 
H    -0.0018416    1.6688437    2.0614474 
H    -1.0455825    0.3979236    1.4131308 
C     2.0731575    1.5062579    0.2890271 
O     2.0918209   -3.0211009    5.3672285 
H     1.7427126   -3.9689598    5.2781916 
O     2.8694399    1.5327932    1.4275192 
N     0.9723022   -0.6241475   -0.3307164 
H     0.1121302    1.2876785   -0.4410484 
H     1.6389879   -1.1688479    0.2683936 
H     0.0627414   -1.1412774   -0.3487466 
N     2.5167834    2.2171441   -0.8729933 
C     3.8387108    1.8536376   -1.4156218 
H     1.9009197    2.9389944   -1.3128581 
C     4.5448315    3.0516896   -2.0424140 
O     3.8048236    4.0914209   -2.5938841 
O     5.9354321    3.0871214   -2.1681215 
H     6.3835963    2.2973983   -1.7278997 
C     3.6911862    0.6838855   -2.4135839 
H     4.5031877    1.5269835   -0.5822138 
C     2.7964772    1.0226803   -3.5895075 
H     3.2662276   -0.1929816   -1.8764796 
H     4.6918474    0.3664276   -2.7786680 
C     3.1600126    1.5910366   -4.7519674 
C     4.3841756    1.9890054   -5.1858234 
C     4.4830835    2.5488075   -6.4256091 
C     3.3712167    2.6974644   -7.2073127 
C     2.1528784    2.2886375   -6.7529828 
C     2.0801021    1.7400623   -5.5220473 
H     5.2690779    1.8823072   -4.5660382 
H     5.4506870    2.8861579   -6.7895989 
H     3.4580483    3.1489418   -8.1923919 
H     1.2604660    2.4026108   -7.3588053 
N     0.9161850    1.2549795   -4.8677961 
C     1.4686847    0.8119203   -3.6211641 
H    -0.0717468    1.2265607   -5.2097577 
H     0.8903509    0.3687035   -2.8149987 
