48
Energy =
C     2.0030517   -2.8326263    0.2155785 
C     1.7061366   -1.6520403    0.7949579 
C     1.8438780   -2.9699184   -1.1179775 
C     1.5317454   -1.8854441   -1.8578793 
C     1.6693885   -0.6072625   -1.3892086 
C     1.4198485   -0.5578003    0.0268777 
H     1.5775024   -1.6233207    1.8742363 
H     1.2996473   -2.0331550   -2.9058663 
H     1.9590337    0.4812146   -0.8013459 
H     2.2143694   -3.6993082    0.8323132 
C     0.2776416    0.3350587    0.6528140 
C     0.1049445    1.7560671    0.0318527 
H     0.4321606    0.4527470    1.7487079 
H    -0.6726115   -0.2299586    0.5201835 
C     0.4432855    1.7726830   -1.4572297 
O     1.9451009   -4.2158829   -1.7478114 
H     2.1603459   -4.9791308   -1.1162150 
O    -0.3119077    2.5100281   -2.3625978 
N    -1.2482864    2.2638096    0.3040251 
H     0.8428183    2.4443959    0.5018115 
H    -1.9541783    1.6873640   -0.2146483 
H    -1.4630646    2.1834294    1.3254842 
N     1.6714660    1.1244671   -1.8924058 
C     2.8328876    2.0669916   -1.9767232 
H     1.4788206    0.9014686   -2.9327781 
C     2.6215855    3.2561519   -2.9369403 
O     2.0228095    3.0565430   -4.1757813 
O     3.1339502    4.5230401   -2.6419032 
H     3.5527336    4.5673410   -1.7252125 
C     4.1513814    1.3067561   -2.2828988 
H     2.9754795    2.5168772   -0.9670933 
C     4.2679369    0.8102247   -3.7126664 
H     4.2522728    0.4438444   -1.5878325 
H     5.0176906    1.9668229   -2.0592895 
C     4.7317718    1.4924611   -4.7757617 
C     5.2072424    2.7627614   -4.8612091 
C     5.6281131    3.2186987   -6.0757849 
C     5.5784747    2.4058061   -7.1738484 
C     5.1088365    1.1311787   -7.0635930 
C     4.6932656    0.7048830   -5.8525869 
H     5.2515321    3.4133871   -3.9936768 
H     6.0012890    4.2357333   -6.1713334 
H     5.9141207    2.7771272   -8.1389531 
H     5.0664996    0.4713410   -7.9235881 
N     4.1925359   -0.5819297   -5.5242227 
C     3.9496871   -0.4309590   -4.1204505 
H     4.0486872   -1.4176386   -6.1367083 
H     3.6086576   -1.2318661   -3.4744872 
