48
Energy =
C    -3.2355521    4.0983915   -4.3139020 
C    -2.2036384    3.3286511   -3.8841289 
C    -3.2924033    4.5036250   -5.6108115 
C    -2.3143673    4.1353625   -6.4693815 
C    -1.2802104    3.3658545   -6.0452365 
C    -1.2210751    2.9542450   -4.7490445 
H    -2.1703412    3.0143986   -2.8436537 
H    -2.3695372    4.4660910   -7.5008456 
H    -0.5017213    3.0855289   -6.7503240 
H    -4.0145171    4.3901564   -3.6177955 
C    -0.0619433    2.1128422   -4.2645984 
C     0.9948310    2.9602178   -3.5182547 
H     0.4146629    1.5757618   -5.1151489 
H    -0.4535443    1.3200381   -3.5865535 
C     1.9906068    2.0746148   -2.8052022 
O    -4.3409663    5.2985255   -6.0851939 
H    -5.0345253    5.5292045   -5.3822626 
O     2.0633046    2.0976214   -1.4187060 
N     1.6816650    3.8791711   -4.4419535 
H     0.5022159    3.5477876   -2.7057104 
H     2.0288269    3.3516706   -5.2786472 
H     1.0027979    4.5953099   -4.7929616 
N     2.9149485    1.2628257   -3.5357706 
C     4.3294521    1.6621267   -3.4797430 
H     2.5760596    0.4394928   -4.0824751 
C     4.8179237    2.0891082   -4.8615790 
O     5.1322454    1.1272581   -5.8148184 
O     4.8953425    3.4332279   -5.2281237 
H     4.4836031    4.0341424   -4.5287994 
C     5.1411049    0.4892715   -2.8917492 
H     4.4564823    2.5372861   -2.7999037 
C     6.5440589    0.9107703   -2.5103143 
H     5.1544784   -0.3683319   -3.5986488 
H     4.6244791    0.1252383   -1.9745836 
C     7.6770468    0.7111627   -3.2047223 
C     7.8798959    0.0707799   -4.3852357 
C     9.1484222    0.0121145   -4.8822322 
C    10.1853941    0.5851671   -4.2000417 
C     9.9599870    1.2210842   -3.0157976 
C     8.6960981    1.2667315   -2.5446616 
H     7.0625139   -0.3862991   -4.9336520 
H     9.3336860   -0.4907775   -5.8284593 
H    11.1930676    0.5353176   -4.6049957 
H    10.7713234    1.6822794   -2.4629147 
N     8.2521823    1.8792833   -1.3421733 
C     6.8467046    1.6047375   -1.3984188 
H     8.8025810    2.3913244   -0.6148801 
H     6.1260006    1.9239546   -0.6478540 
