48
Energy =
C    -2.1945055    2.6093929    0.1291706 
C    -0.8868973    2.6277601    0.4917962 
C    -2.5406279    2.3940056   -1.1679183 
C    -1.5751523    2.2002263   -2.0939347 
C    -0.2665705    2.2167265   -1.7369451 
C     0.0874185    2.4300009   -0.4393327 
H    -0.6243026    2.8073491    1.5317672 
H    -1.8649339    2.0328166   -3.1252753 
H     0.4921581    2.0567232   -2.4961824 
H    -2.9619995    2.7686593    0.8792284 
C     1.5482044    2.4638359   -0.0348932 
C     2.1770241    3.8717365   -0.1338084 
H     2.1285214    1.7475124   -0.6575229 
H     1.6529838    2.1028599    1.0130041 
C     2.2326306    4.3956370   -1.5691881 
O    -3.8776492    2.3651121   -1.5753847 
H    -4.5405008    2.5309562   -0.8256082 
O     1.5494545    5.5514584   -1.9241855 
N     1.4810069    4.7900708    0.7836891 
H     3.2347656    3.7897495    0.2067783 
H     2.0340618    5.6781093    0.8489473 
H     0.5576654    5.0671913    0.3709725 
N     2.9398380    3.6876183   -2.5987062 
C     4.3662808    3.3636863   -2.3864072 
H     2.3948894    3.3830198   -3.4365672 
C     5.1685835    4.5525281   -1.8512728 
O     5.8420980    4.4213968   -0.6440926 
O     5.2490538    5.7610103   -2.5398167 
H     4.5797578    5.7904875   -3.2959674 
C     4.9558079    2.8271295   -3.7078389 
H     4.4457497    2.5600029   -1.6193636 
C     6.3730177    2.3297034   -3.5251353 
H     4.9352429    3.6247581   -4.4842335 
H     4.3235560    1.9995539   -4.0965365 
C     6.7507980    1.1104209   -3.1097733 
C     5.9968926    0.0279255   -2.7868456 
C     6.6343406   -1.1058845   -2.3760389 
C     7.9989280   -1.1390510   -2.2911157 
C     8.7346560   -0.0379989   -2.6156287 
C     8.0812760    1.0704024   -3.0227070 
H     4.9135646    0.0538961   -2.8473725 
H     6.0549758   -1.9871325   -2.1117834 
H     8.4996557   -2.0452269   -1.9596149 
H     9.8171770   -0.0450037   -2.5468981 
N     8.6521054    2.3194289   -3.3860659 
C     7.4754699    3.0825366   -3.6880099 
H     9.6585483    2.6008129   -3.4290437 
H     7.4749082    4.1379050   -3.9607477 
