48
Energy =
C     2.9887688   -3.1014660    3.2416778 
C     2.5693753   -2.7789996    1.9920189 
C     3.1244983   -2.1342522    4.1879769 
C     2.8384233   -0.8496845    3.8762682 
C     2.4186687   -0.5214651    2.6281064 
C     2.2792733   -1.4864795    1.6782333 
H     2.4663965   -3.5626033    1.2455776 
H     2.9506489   -0.0877995    4.6398260 
H     2.1971438    0.5171881    2.3968867 
H     3.2158386   -4.1344942    3.4816650 
C     1.8289837   -1.1267127    0.2799957 
C     3.0073402   -1.0821881   -0.7252410 
H     1.2910364   -0.1515056    0.2739694 
H     1.0791108   -1.8785829   -0.0567979 
C     2.5207753   -0.9734254   -2.1656178 
O     3.5570311   -2.4320097    5.4844700 
H     3.7426574   -3.4166964    5.6406628 
O     1.2358020   -0.5078470   -2.4329885 
N     3.9186950    0.0288795   -0.4031646 
H     3.5649650   -2.0464594   -0.6714718 
H     3.3808611    0.9288904   -0.3731295 
H     4.3368513   -0.1196417    0.5451255 
N     3.2757380   -1.5680804   -3.2364890 
C     4.5158255   -0.8075586   -3.5148290 
H     2.6549304   -1.5338756   -4.0816694 
C     4.2392218    0.6241047   -3.9976760 
O     3.4704714    0.8218144   -5.1392422 
O     4.7642256    1.7386665   -3.3424058 
H     5.2975337    1.4816327   -2.5254370 
C     5.3413421   -1.6007117   -4.5477653 
H     5.1263083   -0.7566935   -2.5856779 
C     6.7392731   -1.0392547   -4.7000445 
H     4.8163390   -1.6247142   -5.5284527 
H     5.4202242   -2.6589086   -4.2119771 
C     7.1633017   -0.1408072   -5.6045673 
C     6.4911843    0.4646695   -6.6176412 
C     7.1621014    1.3598752   -7.3976391 
C     8.4803151    1.6333242   -7.1584295 
C     9.1354936    1.0137003   -6.1361441 
C     8.4500361    0.1321326   -5.3781105 
H     5.4429848    0.2569568   -6.8093138 
H     6.6422195    1.8627732   -8.2098873 
H     9.0062778    2.3513524   -7.7827721 
H    10.1795949    1.2225929   -5.9295973 
N     8.9395901   -0.6055256   -4.2671029 
C     7.7665021   -1.3335186   -3.8837048 
H     9.8958987   -0.6144870   -3.8442358 
H     7.7164420   -2.0161298   -3.0389996 
