48
Energy =
C     2.4834173    4.9299383    1.1163300 
C     1.4546829    4.0542393    0.9853967 
C     3.0842920    5.4497535    0.0121613 
C     2.6503438    5.0869947   -1.2164092 
C     1.6145239    4.2214059   -1.3512341 
C     1.0139550    3.6933356   -0.2517185 
H     0.9903121    3.6415276    1.8767131 
H     3.1465921    5.4907998   -2.0920117 
H     1.2753497    3.9468155   -2.3460353 
H     2.8254064    5.2119659    2.1060085 
C    -0.1185507    2.6991716   -0.4050677 
C     0.3625095    1.2372705   -0.5789426 
H    -0.7423069    2.9826997   -1.2835132 
H    -0.7957825    2.7588332    0.4744250 
C     1.0970942    1.0110148   -1.8948787 
O     4.1413453    6.3613760    0.1151098 
H     4.4295399    6.5500214    1.0682033 
O     0.4199248    1.2849708   -3.0796641 
N     1.1463518    0.7943257    0.5904620 
H    -0.5426237    0.5938213   -0.6579830 
H     2.0486707    1.3281266    0.6332723 
H     0.6200255    1.0046570    1.4706726 
N     2.1769165    0.0702458   -1.9513314 
C     3.3266592    0.3385468   -2.8370039 
H     2.1303830   -0.7764435   -1.3417074 
C     3.8149022    1.7874550   -2.7798802 
O     4.8551822    2.1069370   -1.9169558 
O     3.2790341    2.8030404   -3.5743669 
H     2.4278821    2.5153475   -4.0350485 
C     3.0282675   -0.1537576   -4.2713739 
H     4.1923427   -0.2493831   -2.4556127 
C     2.8590377   -1.6564995   -4.3127427 
H     3.8698291    0.1311399   -4.9421547 
H     2.1231757    0.3443682   -4.6782175 
C     1.7124453   -2.3516990   -4.2117724 
C     0.4313637   -1.9170403   -4.0926141 
C    -0.5637970   -2.8462073   -3.9984348 
C    -0.2672960   -4.1802709   -4.0248545 
C     1.0254662   -4.5944797   -4.1454475 
C     1.9916699   -3.6570318   -4.2377161 
H     0.1918449   -0.8582525   -4.0713781 
H    -1.5987754   -2.5245174   -3.9008622 
H    -1.0658405   -4.9149710   -3.9483577 
H     1.2774672   -5.6499126   -4.1657212 
N     3.3897532   -3.8774554   -4.3581637 
C     3.8781142   -2.5304829   -4.3942740 
H     3.9182805   -4.7799704   -4.4057336 
H     4.9304586   -2.2600430   -4.4605900 
