48
 energy: -9.200833622527 gnorm: 0.000421154811 xtb: 6.6.0 (2ccbbd7)
C           -0.88170563074653        4.68422703544871       -3.88222910124777
C            0.05758873691792        3.74529727368790       -4.23831949921927
C           -0.89186708091233        5.22900455836610       -2.59745662482735
C            0.07097855463193        4.79262201929367       -1.68794709829857
C            1.00694707538753        3.85619264484786       -2.05309703603300
C            1.01903854032491        3.32023875916831       -3.33248099921632
H            0.05386861727943        3.33079503484657       -5.23169308971375
H            0.05610694271773        5.20008352755655       -0.69264619454322
H            1.72772023785189        3.50484830922949       -1.33457837918554
H           -1.62061220860924        5.00876410175719       -4.59289487127975
C            2.03315013141996        2.29377204176866       -3.71147700463551
C            1.76455047062842        0.90697458451293       -3.13124106822433
H            3.12132618435583        2.70875283994408       -3.28724321755060
H            2.14237110009150        2.24854327333086       -4.79686339332566
C            1.81286408712620        0.93325737755931       -1.61982686911825
O           -1.82031069355197        6.17603655432814       -2.20959600360313
H           -2.43642569812990        6.36717162006611       -2.94952059416705
O            0.75046493449355        1.01402396471931       -1.03516838985016
N            0.46916891616815        0.38536268565857       -3.54982938757215
H            2.51125241268177        0.18822029318824       -3.49349712420001
H           -0.24157001244544        0.78568083542914       -2.94296707614332
H            0.25946074194122        0.64822946034888       -4.50554715228588
N            2.99466849834833        0.89304526121674       -0.89951683148420
C            4.37491546974261        1.13542872571973       -1.38194746517552
H            2.91029680577565        1.04254861455408        0.10353696171094
C            4.60286424858090        2.60350668789610       -1.63825944676867
O            5.19005639368125        3.26831267790509       -0.81268227762584
O            4.10589117232410        3.15575292905743       -2.86218533325992
H            4.20940159838459        4.17604864498252       -2.87885266343446
C            4.85267783008405        0.27396004700724       -2.55545298485467
H            5.02777108152310        0.87699863303685       -0.53180900182874
C            4.65640279381494       -1.19378503589741       -2.35808754515777
H            5.91772436947095        0.46876939368782       -2.72247134031323
H            4.37101782068264        0.59667923674838       -3.48008585098795
C            5.46503177355833       -2.23547942931439       -2.90423096190625
C            6.62634758468313       -2.22951032951494       -3.69646208854435
C            7.18118305264624       -3.42663079114133       -4.05615007863012
C            6.61106485258324       -4.64412430311995       -3.64955982458549
C            5.48011645396341       -4.67490037504873       -2.88042871869395
C            4.89590453250582       -3.45997597255407       -2.50054294549549
H            7.06070380489949       -1.29552509015243       -4.00560852989163
H            8.07259478303070       -3.43855969251979       -4.66116124189336
H            7.07496087181610       -5.56926922493755       -3.94935131341196
H            5.03719448520072       -5.60218865072681       -2.56414840036009
N            3.77496003913969       -3.16936451984001       -1.74285087660437
C            3.64174944940333       -1.80649431993453       -1.66683024730445
H            3.16254636528258       -3.86442558343210       -1.31213132064479
H            2.86105891229607       -1.29474370087078       -1.13301290124426
