48
 energy: -9.063604266853 gnorm: 0.000622498869 xtb: 6.6.0 (2ccbbd7)
C           -0.42692710736770        4.80384625497541        0.12595369454672
C           -0.57703107140363        3.43873916009739        0.18865359535987
C            0.84330385750017        5.38046219129431        0.14060424828529
C            1.94971488919174        4.53560319197109        0.21848872864366
C            1.79053214377707        3.17239109337523        0.28255447680417
C            0.52631438576227        2.60105790101438        0.27161138220122
H           -1.56203000894926        3.00456605243642        0.17066986202548
H            2.93111701205796        4.97590603008699        0.21951918273359
H            2.66113176365973        2.53956295044584        0.30632680706311
H           -1.28995827952196        5.44230644639562        0.06470395449374
C            0.34137384335637        1.11404510690799        0.30212129049477
C            0.31834845143667        0.44551743552937       -1.08109486003998
H           -0.60153966744306        0.88657899590287        0.81058029683043
H            1.10929640985489        0.65686118422284        0.93022569339214
C            1.68078086752552        0.41841911969027       -1.82460404965809
O            1.02762858570158        6.74833304444489        0.07473126971130
H            0.15840142190710        7.20286061409999        0.03073601000305
O            1.50862276161302       -0.25711196267556       -3.10336953832369
N           -0.15672391210418       -0.92267513902433       -1.00349981695505
H           -0.39318788408449        0.99453087835385       -1.71558089767996
H           -0.06090366149164       -1.32605044019691       -1.93094315703009
H            0.47219547942935       -1.44434016540912       -0.40905827832848
N            2.75116947663139       -0.22547271541887       -1.01192750422918
C            4.16785098274622       -0.20789721182723       -1.42012401610864
H            2.74246800111689        0.21822904476551       -0.08714632783276
C            4.71419514003119        1.17634501902800       -1.11706141596284
O            4.40768390383012        1.62493972643737       -0.03221111884316
O            5.46604785933484        1.83532127954029       -2.03606326779909
H            5.57067124532269        1.31403692996833       -2.85998825379300
C            4.41970786997873       -0.73092252066685       -2.84072713640206
H            4.68347905884553       -0.89028868584120       -0.72468400365516
C            3.78017111439432        0.07477137402508       -3.90719928937528
H            4.02510462430374       -1.75028265133158       -2.91070894631921
H            5.49492236741028       -0.80929517066306       -3.03237336066741
C            2.41035992472177        0.69186921652370       -3.74296460681296
C            2.12121100918939        1.71854027298965       -2.59145893813896
C            1.02731383312794        2.68509278453150       -2.94559940510260
C            0.57351253547218        2.86486550435076       -4.19145574001635
C            1.13305382036142        2.17405951299102       -5.31907462747554
C            2.03094475564088        1.18536999418020       -5.12062964787096
H            3.02768703629612        2.19650573939299       -2.20437499479417
H            0.58000146397958        3.24091358097537       -2.14128910453372
H           -0.21206383522594        3.58007100988244       -4.37153940594364
H            0.93197558964372        2.51729928336508       -6.31857173794818
N            3.01888461590432        0.67973268353763       -5.96064423958444
C            4.04836076302598        0.05391479894486       -5.22793866700344
H            3.14592614937739        1.00535985565864       -6.91879277466849
H            4.89954737414590       -0.42977530161038       -5.67655071459059
