48
Energy =
C     3.8803204    3.6792729    4.2998618 
C     4.1250900    3.0902978    3.1016052 
C     2.6249869    4.0989234    4.6108424 
C     1.6226422    3.9280333    3.7191588 
C     1.8616187    3.3402046    2.5194687 
C     3.1161493    2.9164698    2.2034309 
H     5.1337382    2.7614160    2.8632643 
H     0.6261724    4.2694418    3.9791147 
H     1.0423072    3.2137519    1.8161745 
H     4.6904660    3.8149365    5.0085498 
C     3.3803646    2.2510242    0.8708198 
C     2.8207100    0.8033367    0.8115307 
H     4.4700176    2.2395472    0.6485621 
H     2.9287372    2.8870436    0.0741773 
C     2.8311692    0.1979116   -0.5898498 
O     2.3382092    4.7062530    5.8368966 
H     3.1419701    4.8105091    6.4467308 
O     2.3135251   -1.0808086   -0.7532768 
N     3.5607409   -0.0600551    1.7460855 
H     1.7442848    0.8085024    1.1009245 
H     4.5859590   -0.0313393    1.5335876 
H     3.4158510    0.2588441    2.7318990 
N     2.8638160    1.0354502   -1.7516404 
C     4.1831761    1.4636259   -2.2521243 
H     1.9601647    1.3615982   -2.1619478 
C     4.2263068    2.9740281   -2.4194950 
O     4.9932843    3.7253975   -1.5398445 
O     3.4643652    3.6398665   -3.3770218 
H     2.9223128    3.0002632   -3.9356889 
C     4.4944163    0.7237306   -3.5685855 
H     4.9874585    1.2298233   -1.5139375 
C     5.0080509   -0.6728324   -3.2992245 
H     5.2507642    1.2851818   -4.1609548 
H     3.5824738    0.6667153   -4.2024387 
C     6.2851083   -1.0320639   -3.0935056 
C     7.4143505   -0.2772231   -3.1000701 
C     8.6050738   -0.8905551   -2.8423220 
C     8.6487010   -2.2318855   -2.5790042 
C     7.5009496   -2.9677275   -2.5694089 
C     6.3360760   -2.3391261   -2.8318908 
H     7.3820981    0.7906738   -3.2966375 
H     9.5235381   -0.3083039   -2.8419401 
H     9.6012825   -2.7125940   -2.3710126 
H     7.5159844   -4.0304471   -2.3528968 
N     5.0362077   -2.9107825   -2.8444158 
C     4.2326847   -1.7594784   -3.1432057 
H     4.7440296   -3.9031813   -2.6904936 
H     3.1430972   -1.7515554   -3.1666440 
