48
Energy =
C    -1.3795220    6.3959904   -2.5563861 
C    -1.5397233    5.0678688   -2.3280625 
C    -0.1594050    6.8884921   -2.8989471 
C     0.8933678    6.0475013   -3.0089136 
C     0.7374557    4.7180699   -2.7872375 
C    -0.4811166    4.2176416   -2.4423796 
H    -2.5210896    4.6922886   -2.0507320 
H     1.8640898    6.4539977   -3.2714835 
H     1.5977691    4.0620450   -2.8737383 
H    -2.2296648    7.0632608   -2.4630340 
C    -0.6603649    2.7341157   -2.1788248 
C    -0.3121432    2.3041270   -0.7306122 
H    -0.0453776    2.1513509   -2.8997282 
H    -1.7137738    2.4445045   -2.3904196 
C     1.1906653    2.3372112   -0.4557814 
O     0.0383152    8.2507928   -3.1455184 
H    -0.7934573    8.8174458   -3.0210319 
O     1.7994859    3.5649515   -0.2291871 
N    -1.0697692    3.0855481    0.2605638 
H    -0.6251575    1.2410483   -0.6181229 
H    -0.7258727    4.0768065    0.2784368 
H    -2.0847113    3.1032211    0.0074662 
N     1.9307006    1.0909864   -0.4046332 
C     3.4296594    1.0818768   -0.3966135 
H     1.5548133    0.4758963   -1.1598793 
C     4.1613498    2.4166242   -0.1827115 
O     4.6989384    2.7026159    1.0677759 
O     4.4091713    3.3034223   -1.2351368 
H     3.8741340    3.0596064   -2.0516838 
C     3.9906850    0.3294561   -1.6387872 
H     3.7237308    0.4946894    0.5017218 
C     3.7396715   -1.1621147   -1.5665406 
H     5.0900537    0.4895414   -1.7265595 
H     3.5396847    0.7433336   -2.5672594 
C     4.3896758   -2.0490079   -0.7961412 
C     5.4128839   -1.8591564    0.0763839 
C     5.9023654   -2.9420009    0.7460208 
C     5.3696274   -4.1838102    0.5344743 
C     4.3442570   -4.3503752   -0.3486981 
C     3.8768974   -3.2636008   -0.9982376 
H     5.8385202   -0.8738850    0.2441816 
H     6.7202696   -2.8167956    1.4518772 
H     5.7650537   -5.0419256    1.0722958 
H     3.9109875   -5.3283799   -0.5286499 
N     2.8252540   -3.2188949   -1.9524769 
C     2.8017024   -1.8211200   -2.2699231 
H     2.2325651   -3.9983374   -2.3199312 
H     2.1194192   -1.3657626   -2.9833146 
