48
Energy =
C     2.4011123    0.1880435    6.1462319 
C     2.0223546   -0.0057731    4.8575245 
C     3.7051023    0.0438842    6.5044330 
C     4.6218039   -0.2921932    5.5687425 
C     4.2487852   -0.4863961    4.2783842 
C     2.9442627   -0.3479707    3.9159258 
H     0.9774134    0.1198741    4.5838047 
H     5.6582131   -0.4025966    5.8676966 
H     4.9998212   -0.7545494    3.5400380 
H     1.6586626    0.4602344    6.8885591 
C     2.5306438   -0.5491560    2.4747484 
C     2.8196066    0.6921211    1.6019555 
H     1.4466448   -0.7954454    2.4042490 
H     3.0690915   -1.4356320    2.0691829 
C     2.6778069    0.3770437    0.1149857 
O     4.1295111    0.2364092    7.8233323 
H     3.3831413    0.4860165    8.4630237 
O     2.2443795   -0.8708124   -0.3209669 
N     1.9110177    1.7823836    1.9982913 
H     3.8787043    1.0057882    1.7519820 
H     2.1544464    2.0986812    2.9663388 
H     2.0847412    2.6203559    1.3911957 
N     2.8902792    1.4028922   -0.8579656 
C     4.2759963    1.8205376   -1.1321602 
H     2.0628854    1.7781415   -1.3730679 
C     4.4562501    3.3011330   -0.8253707 
O     3.3959204    4.1794712   -1.0134132 
O     5.6853060    3.8135860   -0.4094549 
H     6.4011240    3.1046929   -0.3558676 
C     4.6161623    1.5233942   -2.6048677 
H     4.9903866    1.2653752   -0.4812996 
C     4.7187088    0.0349394   -2.8570640 
H     5.5901867    1.9942891   -2.8688544 
H     3.8581773    1.9855078   -3.2745913 
C     3.7442903   -0.7902497   -3.2750038 
C     2.4555560   -0.5227860   -3.6094801 
C     1.6590533   -1.5578250   -4.0032163 
C     2.1566978   -2.8302657   -4.0581221 
C     3.4538680   -3.0755256   -3.7185789 
C     4.2215928   -2.0352043   -3.3316946 
H     2.0545109    0.4832698   -3.5588795 
H     0.6208295   -1.3711728   -4.2665792 
H     1.5139152   -3.6507280   -4.3670331 
H     3.8630305   -4.0794388   -3.7513991 
N     5.5854687   -2.0768447   -2.9355321 
C     5.8263555   -0.6959761   -2.6379807 
H     6.2342777   -2.8953425   -2.8816251 
H     6.7721824   -0.3034503   -2.2720996 
