48
Energy =
C    -3.3641295    3.1981103    0.8575320 
C    -2.0391688    3.1065799    1.1355381 
C    -3.7863436    3.3048229   -0.4307489 
C    -2.8780429    3.3189096   -1.4327275 
C    -1.5516449    3.2268589   -1.1604891 
C    -1.1240177    3.1232223    0.1274255 
H    -1.7169651    3.0159507    2.1696156 
H    -3.2279222    3.4044834   -2.4554954 
H    -0.8361636    3.2389593   -1.9785379 
H    -4.0842328    3.1839025    1.6683454 
C     0.3530162    3.0033756    0.4290409 
C     0.8850622    1.5650376    0.2075279 
H     0.5759729    3.3268776    1.4694425 
H     0.9117138    3.7114764   -0.2250307 
C     2.4029785    1.4972139    0.2356726 
O    -5.1444612    3.3993969   -0.7521578 
H    -5.7590127    3.3867259    0.0544472 
O     3.0902884    2.5224370    0.3502704 
N     0.3135551    0.6423730    1.2035214 
H     0.6082286    1.2243252   -0.8165971 
H     0.4923242    1.0103629    2.1680550 
H    -0.7237975    0.5825881    1.0766409 
N     3.0675710    0.2582775   -0.0489265 
C     4.2541058    0.3946919   -0.9086797 
H     2.6892716   -0.6431351    0.3218241 
C     4.7481067    1.8478408   -0.8816270 
O     5.8250202    2.2469912   -1.6658424 
O     4.1905451    2.6762684   -0.1442141 
H     3.9827842    2.4222677    0.7994381 
C     3.8657893   -0.0862937   -2.3219213 
H     5.0740946   -0.2334342   -0.4978942 
C     5.0665648   -0.2684637   -3.2259676 
H     3.1292400    0.6167863   -2.7664320 
H     3.3435460   -1.0650070   -2.2398484 
C     5.4853374    0.5525641   -4.2044348 
C     4.9742459    1.7364157   -4.6327396 
C     5.5993714    2.3790673   -5.6605753 
C     6.7123686    1.8362172   -6.2401432 
C     7.2095640    0.6485101   -5.7929146 
C     6.5747730    0.0321786   -4.7737389 
H     4.1028328    2.1821908   -4.1639302 
H     5.2156399    3.3332067   -6.0136581 
H     7.2073383    2.3576096   -7.0555676 
H     8.0948854    0.2073139   -6.2379071 
N     6.9301596   -1.2006892   -4.1634757 
C     5.9045365   -1.3190685   -3.1694888 
H     7.7211652   -1.8471420   -4.3870826 
H     5.8194145   -2.1477206   -2.4706648 
