48
Energy =
C     1.1048082    6.6995146    3.4104988 
C     1.3095005    5.5462575    2.7252496 
C     1.7377184    7.8418583    3.0308351 
C     2.5713601    7.8215379    1.9659456 
C     2.7802014    6.6709847    1.2772277 
C     2.1467588    5.5258473    1.6522383 
H     0.7977797    4.6402101    3.0406945 
H     3.0694445    8.7390423    1.6724663 
H     3.4560110    6.6759417    0.4254911 
H     0.4344316    6.7051246    4.2631250 
C     2.3905282    4.2354183    0.9032562 
C     3.3682689    3.2996612    1.6553338 
H     2.7694382    4.4440522   -0.1227554 
H     1.4146324    3.7168959    0.7588887 
C     3.4371320    1.9351661    0.9868884 
O     1.5515228    9.0463348    3.7174379 
H     0.9050233    8.9796170    4.4958600 
O     2.3072161    1.1252601    0.9827535 
N     4.7002752    3.9186909    1.7769692 
H     2.9676982    3.0984068    2.6755790 
H     5.0046655    4.2971648    0.8480792 
H     4.6435961    4.7342816    2.4308150 
N     4.6759221    1.4016282    0.4945250 
C     4.8799488    1.3391108   -0.9646694 
H     5.3912414    1.0784452    1.1828039 
C     4.7944205    2.7241723   -1.6095680 
O     3.6158423    3.1486883   -2.2145981 
O     5.8575840    3.6246266   -1.5284295 
H     6.6518399    3.2203423   -1.0529726 
C     3.9055606    0.3108301   -1.5793601 
H     5.9147337    0.9739688   -1.1500228 
C     4.2729324   -0.0250778   -3.0077786 
H     2.8611072    0.6962799   -1.5351437 
H     3.9098582   -0.6177101   -0.9674398 
C     5.2047154   -0.9026442   -3.4106806 
C     6.0125597   -1.7113825   -2.6779775 
C     6.8933025   -2.5169225   -3.3381872 
C     6.9543994   -2.5001512   -4.7044230 
C     6.1350577   -1.6770975   -5.4188640 
C     5.2707197   -0.8915301   -4.7427456 
H     5.9661606   -1.7236310   -1.5930505 
H     7.5503412   -3.1752952   -2.7752596 
H     7.6597853   -3.1442548   -5.2232205 
H     6.1732484   -1.6486835   -6.5024540 
N     4.3473508    0.0394187   -5.2891825 
C     3.7456131    0.5623148   -4.0963960 
H     4.1578300    0.2764480   -6.2898322 
H     2.9876836    1.3445798   -4.0773492 
