48
 energy: -9.173212658202 gnorm: 0.000651661007 xtb: 6.6.0 (2ccbbd7)
C            2.07433928385515        0.14600866760616        2.85939258111993
C            1.62293656981319        0.78047610279132        1.72747922050666
C            1.24974485222434        0.01719127100839        3.97680424573522
C           -0.03677067112189        0.55005485435751        3.90937854532578
C           -0.47834354516946        1.18331339239694        2.77188895449444
C            0.33899577592480        1.30480312493985        1.65582185297286
H            2.27014781536509        0.86002818816763        0.87330456433134
H           -0.67192284715245        0.45781861535267        4.77223615560990
H           -1.47055917123406        1.60000248754904        2.74199547524258
H            3.07048543717194       -0.25752901536446        2.89472270791262
C           -0.16500472662212        2.04667976917991        0.44868766590164
C            0.42876128915091        1.60457218150839       -0.90027313096267
H            0.03348018026135        3.11451028486518        0.58987863635144
H           -1.25441942542074        1.94448733805875        0.40735898987993
C            1.86609680811678        1.99870417888971       -1.00606453804464
O            1.67086496360021       -0.61569094399820        5.13127391999027
H            2.59841548774515       -0.92029355743437        5.02778625558462
O            2.22662564326422        3.32285326667418       -0.72440136808676
N            0.24429141845594        0.17589636830807       -1.13686975810349
H           -0.09211271132832        2.13492824175010       -1.71523721813657
H            0.71887966629241       -0.34986637623394       -0.41580995488426
H           -0.73646264212292       -0.06489363621554       -1.07352785979872
N            2.81846628286368        1.05893277932295       -1.34231574841822
C            4.15521707135513        1.41806904410890       -1.81837695315595
H            2.49470945971320        0.19134583413393       -1.77285639679802
C            4.19597915195393        2.84834158631447       -2.30564424121991
O            4.77817752892726        3.10463200115376       -3.35694729331063
O            3.57218973296612        3.82022433906388       -1.49941498839524
H            3.34466693001338        3.42708211104323       -0.44151422977444
C            4.62568974888305        0.45664949640358       -2.91666321408903
H            4.83192992729590        1.33280983352593       -0.95618746985955
C            4.49687514862840       -0.97621761789280       -2.52696894360584
H            5.66072985989292        0.68342322927192       -3.19255804147216
H            4.03481039439954        0.64553340410858       -3.81794870716165
C            3.36451587797531       -1.81402041641254       -2.76259865174556
C            2.15074204728622       -1.61360976963422       -3.44461457590853
C            1.23359568519707       -2.62759383562248       -3.46104914115040
C            1.48835791775932       -3.84910524511691       -2.81639466174077
C            2.66214573728848       -4.06623945954433       -2.14772211455836
C            3.61402274195715       -3.03926561831682       -2.11498295129786
H            1.96037851035749       -0.68272913757547       -3.95005858961908
H            0.29962388693449       -2.49029755094369       -3.98046116470266
H            0.74524842207772       -4.62852999764307       -2.85221398499767
H            2.86443780596805       -4.99774928926793       -1.65021873879230
N            4.85521446537938       -2.94418522712762       -1.50966164132274
C            5.37484190034336       -1.69683369278820       -1.75579189622518
H            5.29186319571718       -3.68509792143559       -0.95818075243182
H            6.31798456127604       -1.33484984152164       -1.37976864499844
