48
Energy =
C    -3.0282987   -2.5908148    0.5809599 
C    -2.6924786   -1.6224349   -0.3090801 
C    -2.2545477   -3.7026022    0.7061019 
C    -1.1504582   -3.8379097   -0.0630307 
C    -0.8120480   -2.8735743   -0.9550216 
C    -1.5817291   -1.7598850   -1.0828204 
H    -3.3173682   -0.7372071   -0.3945066 
H    -0.5408303   -4.7278650    0.0456553 
H     0.0780222   -2.9988268   -1.5637817 
H    -3.9155388   -2.4728823    1.1935666 
C    -1.1857102   -0.6765951   -2.0579403 
C    -0.0393991    0.2124259   -1.5137996 
H    -2.0581227   -0.0439242   -2.3339471 
H    -0.8685951   -1.1531316   -3.0157323 
C     0.5907810    1.0734390   -2.6049568 
O    -2.5697099   -4.7175027    1.6158653 
H    -3.4151707   -4.5444523    2.1485387 
O     0.1515100    0.9475990   -3.9178022 
N    -0.5315341    1.0557917   -0.4165310 
H     0.7817503   -0.4355150   -1.1297551 
H    -1.3442395    1.6271206   -0.7499981 
H    -0.8699993    0.4508385    0.3675310 
N     1.5170894    2.1248535   -2.2645062 
C     2.7133392    2.1966262   -3.1433534 
H     1.8087395    1.9930259   -1.2670078 
C     2.3805226    2.7473635   -4.5285309 
O     3.2785920    3.6052546   -5.1516236 
O     1.2436883    2.3453380   -5.2164339 
H     0.7001668    1.6475249   -4.5681282 
C     3.4668918    0.8433545   -3.2387576 
H     3.4089969    2.9561798   -2.7186732 
C     3.8990450    0.3110014   -1.8864402 
H     4.3807339    0.9757054   -3.8605229 
H     2.8365082    0.1033307   -3.7787545 
C     3.6708137   -0.9165342   -1.3846870 
C     3.0020934   -1.9733556   -1.9190442 
C     2.9298636   -3.1269899   -1.1969278 
C     3.5115885   -3.2089684    0.0368978 
C     4.1768682   -2.1383237    0.5542963 
C     4.2401295   -1.0082977   -0.1806256 
H     2.5311756   -1.9233045   -2.8945457 
H     2.4114573   -3.9887286   -1.6089724 
H     3.4497605   -4.1343062    0.6044085 
H     4.6512316   -2.1894842    1.5283682 
N     4.8990210    0.2013015    0.1656838 
C     4.6418564    0.9971132   -0.9973450 
H     5.4254283    0.4419733    1.0373570 
H     5.0212627    2.0065462   -1.1416633 
