48
Energy =
C     2.1187137   -3.3091384    1.6034327 
C     1.2970787   -2.2881548    1.2523972 
C     2.2908402   -4.3665675    0.7663458 
C     1.6437545   -4.3905266   -0.4209024 
C     0.8228376   -3.3715674   -0.7777154 
C     0.6383187   -2.3151371    0.0605477 
H     1.1660394   -1.4521862    1.9343511 
H     1.7930790   -5.2335345   -1.0855999 
H     0.3165057   -3.4103991   -1.7387518 
H     2.6382904   -3.2774220    2.5548005 
C    -0.2898465   -1.1801348   -0.3188749 
C     0.4849201    0.0693429   -0.8064376 
H    -0.9048219   -0.9222274    0.5710308 
H    -1.0114842   -1.5059069   -1.1025637 
C     1.0959970   -0.1028314   -2.2046496 
O     3.1345969   -5.4337665    1.0968195 
H     3.5355464   -5.3648734    2.0260298 
O     0.7218134   -1.1781631   -3.0041045 
N    -0.4014547    1.2435916   -0.7684842 
H     1.3280182    0.2499734   -0.1050108 
H    -1.2547629    1.0604185   -1.3508244 
H    -0.7239598    1.4154901    0.2132192 
N     1.8229992    0.9698626   -2.8297275 
C     3.1689328    1.1723614   -2.2420502 
H     1.2242493    1.8244232   -2.7434205 
C     3.5271313    2.6616373   -2.1874803 
O     4.3833810    3.2162206   -3.1331340 
O     2.9819782    3.4952886   -1.2103234 
H     2.2994489    3.0146499   -0.6409297 
C     4.1999423    0.3814033   -3.0785143 
H     3.2246860    0.8221798   -1.1873005 
C     4.1981203   -1.0961039   -2.7554075 
H     5.2279139    0.7702577   -2.9041160 
H     3.9858175    0.5381522   -4.1607905 
C     4.7877133   -1.6823601   -1.7019914 
C     5.4945659   -1.1300324   -0.6822069 
C     5.9978973   -1.9564682    0.2787581 
C     5.7935355   -3.3064321    0.2043244 
C     5.0851397   -3.8379360   -0.8317026 
C     4.5912391   -2.9997014   -1.7660184 
H     5.6597120   -0.0579949   -0.6220746 
H     6.5647110   -1.5399903    1.1079412 
H     6.1917414   -3.9603104    0.9759860 
H     4.9027881   -4.9058826   -0.8980283 
N     3.8223611   -3.3436333   -2.9099852 
C     3.6048248   -2.0512623   -3.4930568 
H     3.5043118   -4.2821038   -3.2452099 
H     3.0168725   -1.8732704   -4.3917747 
