48
Energy =
C     2.8565368   -5.3631113   -1.6906904 
C     2.9065866   -4.1288584   -2.2526052 
C     1.6583539   -5.9728651   -1.4860523 
C     0.5174453   -5.3419854   -1.8456868 
C     0.5613850   -4.1075993   -2.4081056 
C     1.7585847   -3.4945520   -2.6177147 
H     3.8714253   -3.6529084   -2.4089267 
H    -0.4314610   -5.8389203   -1.6759522 
H    -0.3673363   -3.6160713   -2.6859004 
H     3.7768438   -5.8607656   -1.4048235 
C     1.8166583   -2.1126441   -3.2288057 
C     2.0355059   -1.0111946   -2.1644630 
H     0.8922527   -1.8955338   -3.8110089 
H     2.6463785   -2.0871017   -3.9712093 
C     2.3763239    0.3157379   -2.8167994 
O     1.5712002   -7.2435597   -0.9080728 
H     2.4690234   -7.6507823   -0.6702255 
O     1.6844051    0.7410258   -3.9462572 
N     0.8523290   -0.8727403   -1.3005268 
H     2.9158220   -1.2798372   -1.5352220 
H     0.0012943   -0.6915723   -1.8857764 
H     0.6914010   -1.7615928   -0.7710767 
N     3.3066497    1.2073042   -2.1879548 
C     4.6817221    1.3552027   -2.7196475 
H     2.9853029    1.7194981   -1.3352810 
C     4.8768585    2.7163038   -3.3834705 
O     5.9278346    3.5254139   -2.9683155 
O     4.0560635    3.1670048   -4.4165406 
H     3.3007448    2.5198784   -4.5904619 
C     5.0955023    0.1785905   -3.6434593 
H     5.3744959    1.3509373   -1.8477745 
C     6.5661674    0.2347535   -3.9985094 
H     4.4804863    0.1735201   -4.5702535 
H     4.9031967   -0.7847445   -3.1228504 
C     7.1207698    0.8162844   -5.0750584 
C     6.5371338    1.4660143   -6.1151463 
C     7.3391619    1.9820332   -7.0899473 
C     8.6972857    1.8421199   -7.0134124 
C     9.2616536    1.1862438   -5.9599139 
C     8.4469623    0.6845522   -5.0079516 
H     5.4601774    1.5881261   -6.1765090 
H     6.8947406    2.5141451   -7.9277458 
H     9.3294978    2.2611790   -7.7921208 
H    10.3371699    1.0719210   -5.8802164 
N     8.8304369   -0.0157991   -3.8328072 
C     7.5526313   -0.2638895   -3.2327166 
H     9.7862720   -0.2816445   -3.5027651 
H     7.4080792   -0.7698104   -2.2811942 
