48
Energy =
C    -0.6288146   -4.5297741   -0.3001508 
C     0.1914090   -3.4665521   -0.1048169 
C    -1.6209358   -4.4662617   -1.2280264 
C    -1.7841355   -3.3380260   -1.9557598 
C    -0.9665014   -2.2717335   -1.7648713 
C     0.0244794   -2.3281983   -0.8332897 
H     0.9851445   -3.5354792    0.6339915 
H    -2.5771426   -3.3012194   -2.6945506 
H    -1.1099594   -1.3750911   -2.3628838 
H    -0.4869588   -5.4313419    0.2857488 
C     0.9470515   -1.1459240   -0.6341777 
C     2.0669449   -1.1015162   -1.6983393 
H     1.3910128   -1.1617853    0.3848884 
H     0.3433405   -0.2103427   -0.6880024 
C     2.7876668    0.2351072   -1.6660260 
O    -2.4833418   -5.5440871   -1.4542311 
H    -2.2949429   -6.3508523   -0.8695240 
O     2.1226120    1.3670148   -2.1176717 
N     2.9973559   -2.2354049   -1.5271079 
H     1.6086358   -1.1468128   -2.7159790 
H     3.2568575   -2.3468444   -0.5181223 
H     2.5163930   -3.1205252   -1.8172323 
N     4.0083700    0.3962429   -0.9308794 
C     5.2281966    0.7299566   -1.6858210 
H     3.9928133    0.2784585    0.1053126 
C     5.1770478    2.1546116   -2.2454298 
O     5.1296367    2.3726404   -3.6191404 
O     5.2239445    3.2614882   -1.3973224 
H     5.1293723    2.9924591   -0.4296793 
C     5.4927111   -0.3534906   -2.7611917 
H     6.0803333    0.7230607   -0.9699589 
C     6.9281471   -0.3344279   -3.2386567 
H     4.7985955   -0.2154483   -3.6214084 
H     5.2532008   -1.3600773   -2.3505801 
C     7.9807329   -0.9029294   -2.6301027 
C     8.0338874   -1.6349156   -1.4874974 
C     9.2471949   -2.1002544   -1.0727596 
C    10.3756510   -1.8280819   -1.7960839 
C    10.2977023   -1.0881801   -2.9387098 
C     9.0858141   -0.6412541   -3.3293704 
H     7.1399320   -1.8491721   -0.9093924 
H     9.3181643   -2.6895936   -0.1616310 
H    11.3393096   -2.2010790   -1.4580015 
H    11.1832424   -0.8595108   -3.5220152 
N     8.7881805    0.1488329   -4.4713268 
C     7.3691582    0.3086681   -4.3346119 
H     9.4293651    0.5114681   -5.2137803 
H     6.7453793    0.8924042   -5.0116217 
