48
Energy =
C    -2.1359487    3.5217700   -0.7409028 
C    -1.0328984    2.8352412   -0.3492560 
C    -3.2844626    2.8570143   -1.0381802 
C    -3.3207041    1.5087807   -0.9389612 
C    -2.2208303    0.8182078   -0.5459201 
C    -1.0708192    1.4794447   -0.2416705 
H    -0.1182549    3.3773816   -0.1330288 
H    -4.2406055    0.9895147   -1.1821703 
H    -2.2668146   -0.2650897   -0.4802895 
H    -2.0929070    4.6022052   -0.8240929 
C     0.1625350    0.7080272    0.1677712 
C     1.1319880    0.2677870   -1.1990637 
H    -0.1369259   -0.1993050    0.7329375 
H     0.7808372    1.3131476    0.8644149 
C     2.0297747    1.6884181   -2.4103368 
O    -4.4361191    3.5324619   -1.4559030 
H    -4.3308436    4.5407488   -1.4870466 
O     1.6107283    0.9067387   -1.5472670 
N     1.9339979   -1.0376424   -0.6909243 
H     0.1566652   -0.3654926   -1.7309391 
H     2.4509198   -0.7637294    0.1756991 
H     1.2514298   -1.7735203   -0.3997665 
N     2.7566861    3.6396923   -0.1108531 
C     4.2053639    2.3005471   -0.0646987 
H     2.1175457    3.4379477    0.6956144 
C     5.5702971    2.9486991   -0.0941388 
O     6.6427236    2.2273043   -0.6012587 
O     5.8029776    4.2119533    0.4439139 
H     4.9432762    4.6452249    0.7518261 
C     4.0756930    0.7343843   -1.7154942 
H     4.1437605    1.7612448    0.9031091 
C     2.7902513   -0.1831806   -3.3412174 
H     4.4309382   -0.1701187   -1.1814254 
H     4.9696403    1.0087661   -2.3136597 
C     1.1852620    0.3080770   -3.8901316 
C     0.2046947    1.6788601   -3.2338668 
C    -0.9942740    1.7137770   -3.8436856 
C    -1.3286244    0.7561223   -4.7948560 
C    -0.5155683   -0.2983067   -5.2259939 
C     0.7430477   -0.4865414   -4.7538986 
H     2.7464791    2.4705658   -1.2048562 
H    -1.7069954    2.4877516   -3.5749265 
H    -2.3201410    0.8305733   -5.2369987 
H    -0.9001392   -0.9966385   -5.9627633 
N     1.7351502   -1.5200033   -5.0021593 
C     2.9113822   -1.2762001   -4.1230711 
H     1.6356485   -2.3074092   -5.6855757 
H     3.7721099   -1.9385453   -4.0794413 
