48
Energy =
C     1.8421916   -5.1638072    1.0434620 
C     1.3264865   -4.0912195    0.3916921 
C     3.0870874   -5.6167021    0.7362401 
C     3.8079909   -4.9914360   -0.2218360 
C     3.2973822   -3.9183462   -0.8769337 
C     2.0505187   -3.4631996   -0.5755222 
H     0.3316437   -3.7392028    0.6526852 
H     4.7999533   -5.3619612   -0.4556669 
H     3.8933710   -3.4293754   -1.6417191 
H     1.2563748   -5.6570650    1.8115904 
C     1.4868726   -2.2577054   -1.2938408 
C     2.0596960   -0.9281852   -0.7493574 
H     0.3750701   -2.2409243   -1.2278780 
H     1.7197892   -2.3472932   -2.3795431 
C     1.6685063    0.2277494   -1.6506471 
O     3.6489686   -6.7189133    1.3886745 
H     3.0459004   -7.1322904    2.0917266 
O     0.3257966    0.5620358   -1.7979417 
N     1.6076595   -0.6843634    0.6290705 
H     3.1735442   -0.9715181   -0.7613326 
H     0.5598954   -0.7015856    0.6673228 
H     1.9598223   -1.4423436    1.2590477 
N     2.6115054    0.7233597   -2.6106628 
C     3.5212742    1.7416844   -2.0215934 
H     2.0697429    1.1125665   -3.4197665 
C     3.1745182    3.1823088   -2.4276822 
O     4.1879035    4.0792126   -2.7458191 
O     1.8669441    3.6615985   -2.3925526 
H     1.2150229    2.9687505   -2.0543942 
C     4.9750925    1.3530469   -2.3799804 
H     3.4670515    1.7521732   -0.9055840 
C     5.1724869    1.1204296   -3.8662338 
H     5.2521000    0.4336801   -1.8213572 
H     5.6812770    2.1409873   -2.0306483 
C     5.0089970   -0.0379641   -4.5273645 
C     4.6583308   -1.2652555   -4.0626697 
C     4.5511260   -2.2914235   -4.9541933 
C     4.7937411   -2.0789570   -6.2831301 
C     5.1440078   -0.8384512   -6.7277050 
C     5.2439091    0.1601653   -5.8253422 
H     4.4593805   -1.4326885   -3.0102647 
H     4.2690535   -3.2821642   -4.6070101 
H     4.7046695   -2.9012114   -6.9888047 
H     5.3364646   -0.6512521   -7.7786561 
N     5.5832571    1.5154673   -6.0799328 
C     5.5086460    2.0699604   -4.7583467 
H     5.8274741    1.9814365   -6.9840667 
H     5.6842170    3.1180122   -4.5191691 
