48
Energy =
C    -2.1192076    0.4255226   -0.5270653 
C    -0.9785227    0.3148288    0.2010231 
C    -2.5033732   -0.5840877   -1.3526231 
C    -1.7420518   -1.6979194   -1.4453681 
C    -0.5999030   -1.8131455   -0.7214310 
C    -0.2139745   -0.8085522    0.1119647 
H    -0.6754639    1.1356099    0.8496214 
H    -2.0584538   -2.4949145   -2.1094376 
H     0.0014124   -2.7137908   -0.8146548 
H    -2.7207954    1.3251429   -0.4511492 
C     1.0742963   -0.9273285    0.8981178 
C     2.2966705   -0.4880436    0.0583270 
H     1.2016921   -1.9824310    1.2258654 
H     1.0221615   -0.3218199    1.8318393 
C     2.2849574    1.0041150   -0.2540822 
O    -3.6711660   -0.5015261   -2.1172620 
H    -4.1859241    0.3635059   -1.9928003 
O     1.7007268    1.9082189    0.6257324 
N     3.5396415   -0.8641709    0.7508930 
H     2.2606358   -1.0147752   -0.9226199 
H     3.5755682   -0.3881656    1.6859662 
H     3.5516304   -1.8964419    0.9264391 
N     2.7721934    1.4907637   -1.5080387 
C     4.2296073    1.4475507   -1.7320431 
H     2.0772976    1.7983421   -2.2235446 
C     4.7750738    2.8241716   -2.0995791 
O     5.7813947    3.3843051   -1.3229604 
O     4.3493184    3.5102720   -3.2397408 
H     3.5782199    3.0446081   -3.6911930 
C     4.5307509    0.3910023   -2.8154577 
H     4.7661887    1.1662258   -0.7917265 
C     6.0188856    0.2263428   -3.0342326 
H     4.0409448    0.6715720   -3.7737998 
H     4.0912187   -0.5847814   -2.5181441 
C     6.8517837   -0.5684419   -2.3440596 
C     6.5909496   -1.4292867   -1.3271535 
C     7.6320114   -2.1189671   -0.7787388 
C     8.9040783   -1.9373547   -1.2471040 
C     9.1427330   -1.0633017   -2.2660046 
C     8.0956138   -0.3953627   -2.7939816 
H     5.5838243   -1.5677091   -0.9476612 
H     7.4498726   -2.8121299    0.0387977 
H     9.7293931   -2.4869914   -0.8015011 
H    10.1464525   -0.9003028   -2.6435094 
N     8.1293498    0.5684468   -3.8370384 
C     6.7434531    0.9294594   -3.9227661 
H     8.9437519    0.9125767   -4.3958671 
H     6.3444389    1.7058694   -4.5757727 
