48
Energy =
C     7.0239940    2.2113821    4.9337188 
C     5.9428589    1.8238308    4.2109566 
C     8.0457140    2.8772269    4.3319200 
C     7.9784131    3.1497453    3.0088694 
C     6.8998012    2.7645092    2.2809306 
C     5.8721627    2.1022300    2.8801599 
H     5.1360672    1.2876455    4.7046341 
H     8.8010976    3.6787388    2.5401871 
H     6.8681478    2.9874582    1.2167337 
H     7.0699648    1.9854351    5.9935363 
C     4.6760412    1.6531620    2.0712277 
C     4.7483047    0.1495912    1.7111369 
H     4.5853062    2.2605605    1.1418650 
H     3.7510233    1.8519296    2.6576048 
C     3.4539886   -0.3341330    1.0721945 
O     9.1742539    3.2900132    5.0477835 
H     9.1492521    3.0473347    6.0321340 
O     2.6796721   -1.2672691    1.7512515 
N     5.9076536   -0.1258301    0.8448823 
H     4.8498464   -0.4470195    2.6494368 
H     5.9768659    0.5844418    0.0766145 
H     6.7887507   -0.0533133    1.4056246 
N     2.8166036    0.4321111    0.0448093 
C     3.3594494    0.3319674   -1.3174254 
H     2.0083953    1.0403894    0.3000733 
C     3.7627887    1.7140202   -1.8303698 
O     5.1069705    1.9983135   -2.0455666 
O     2.8269174    2.7276630   -2.0563711 
H     1.8891593    2.4432802   -1.8194792 
C     2.3202208   -0.3446351   -2.2305970 
H     4.2758006   -0.3005257   -1.3306151 
C     2.2633569   -1.8356941   -1.9767629 
H     2.5710034   -0.1608014   -3.2977419 
H     1.3145018    0.0960273   -2.0607953 
C     3.0062108   -2.7809915   -2.5750147 
C     3.9509133   -2.6639996   -3.5442901 
C     4.5800394   -3.7947557   -3.9757909 
C     4.2639236   -5.0104784   -3.4351927 
C     3.3184379   -5.1024755   -2.4573961 
C     2.7070756   -3.9705523   -2.0503617 
H     4.2169668   -1.6989635   -3.9651222 
H     5.3425395   -3.7278481   -4.7483013 
H     4.7741122   -5.9063260   -3.7801573 
H     3.0637730   -6.0569018   -2.0093058 
N     1.7225435   -3.8452371   -1.0349961 
C     1.5005459   -2.4282115   -1.0407976 
H     1.2688421   -4.5860018   -0.4526261 
H     0.8577836   -1.9030037   -0.3363405 
