48
Energy =
C    -2.0292460   -0.2694847   -3.5130366 
C    -0.9849454    0.4512201   -3.0315749 
C    -3.2821683   -0.0668683   -3.0249525 
C    -3.4812040    0.8566234   -2.0572863 
C    -2.4406415    1.5803587   -1.5720443 
C    -1.1847320    1.3833719   -2.0593678 
H     0.0111471    0.2779728   -3.4303675 
H    -4.4853338    1.0072662   -1.6759048 
H    -2.6215078    2.3139540   -0.7909237 
H    -1.8598172   -1.0085631   -4.2886714 
C    -0.0159353    2.1737362   -1.5123166 
C     0.8493842    1.3447170   -0.5277407 
H    -0.3687041    3.1029093   -1.0104063 
H     0.6015463    2.5013650   -2.3769778 
C     2.1061553    2.0910080   -0.0799032 
O    -4.3796693   -0.7932557   -3.4976939 
H    -4.1495327   -1.4627595   -4.2238792 
O     2.7020152    1.7664719    1.1339930 
N     0.0458514    0.9339470    0.6361609 
H     1.2175722    0.4319306   -1.0451034 
H    -0.3778183    1.7722864    1.0993294 
H    -0.7281252    0.2937643    0.3426588 
N     2.8553415    2.8986034   -1.0019985 
C     4.2001964    2.4163608   -1.3731268 
H     2.3852687    3.6977956   -1.4837171 
C     5.0095225    3.5096181   -2.0641004 
O     6.2199049    3.9104532   -1.5140992 
O     4.5977923    4.0845851   -3.2692979 
H     3.6905261    3.7505417   -3.5550572 
C     4.0833642    1.1470482   -2.2487394 
H     4.7734601    2.1791380   -0.4432868 
C     5.4444132    0.5693149   -2.5662574 
H     3.5380052    1.3775839   -3.1899196 
H     3.4889343    0.3726374   -1.7222152 
C     6.1735875   -0.2414473   -1.7834976 
C     5.8861912   -0.7622444   -0.5624871 
C     6.8180717   -1.5572023    0.0376015 
C     8.0103855   -1.8129279   -0.5819355 
C     8.2790467   -1.2730881   -1.8049308 
C     7.3397975   -0.4929625   -2.3798077 
H     4.9453323   -0.5506266   -0.0615863 
H     6.6141775   -1.9838541    1.0171143 
H     8.7502346   -2.4428975   -0.0942450 
H     9.2236830   -1.4569573   -2.3053903 
N     7.4279607    0.1808629   -3.6274902 
C     6.1627304    0.8562763   -3.6661909 
H     8.2029727    0.1751619   -4.3299393 
H     5.8547122    1.5507133   -4.4479206 
