48
Energy =
C     3.1812219    5.0485648    0.0740450 
C     2.9769689    3.7486323   -0.2561856 
C     2.6658474    5.5495352    1.2275900 
C     1.9428807    4.7463957    2.0405629 
C     1.7307789    3.4467104    1.7126433 
C     2.2543420    2.9355113    0.5642328 
H     3.3819305    3.3724467   -1.1900319 
H     1.5309437    5.1600270    2.9549597 
H     1.1370776    2.8216966    2.3749113 
H     3.7516635    5.6884430   -0.5905154 
C     1.9935246    1.4904106    0.1903093 
C     0.7478869    1.3453509   -0.7164595 
H     1.8480244    0.8935902    1.1181285 
H     2.8846799    1.0460925   -0.3025325 
C     1.0252593    1.7847937   -2.1458490 
O     2.8620722    6.8829972    1.6009740 
H     3.3882785    7.4305580    0.9281617 
O     0.9142514    3.1278912   -2.4837160 
N     0.2539987   -0.0418253   -0.6676287 
H    -0.0603922    2.0255390   -0.3534023 
H     1.0411317   -0.7086526   -0.8548050 
H    -0.1047307   -0.2543301    0.2932614 
N     1.5914447    0.8766180   -3.0990985 
C     3.0068655    1.0764263   -3.4632821 
H     0.9763349    0.1333361   -3.4993451 
C     3.1809837    2.1160629   -4.5655345 
O     4.1904994    3.0638943   -4.4358261 
O     2.4253056    2.0934616   -5.7375422 
H     1.6893626    1.4065033   -5.6821748 
C     3.6371468   -0.2761061   -3.8550918 
H     3.5687417    1.4778956   -2.5940007 
C     3.6204758   -1.2436937   -2.6925171 
H     4.6901909   -0.1269536   -4.1847260 
H     3.0900831   -0.7123546   -4.7209109 
C     4.4039386   -1.2029425   -1.6035154 
C     5.4163658   -0.3533897   -1.2907001 
C     6.0446333   -0.5089749   -0.0902924 
C     5.6565364   -1.4995172    0.7690931 
C     4.6391698   -2.3423270    0.4320231 
C     4.0352787   -2.1700009   -0.7623179 
H     5.7280261    0.4316512   -1.9736192 
H     6.8597080    0.1566862    0.1840780 
H     6.1624125   -1.6173288    1.7241988 
H     4.3182608   -3.1323702    1.1025460 
N     2.9520511   -2.9196477   -1.2933448 
C     2.7428182   -2.2513183   -2.5443337 
H     2.4413430   -3.7339043   -0.8811070 
H     1.9563391   -2.5041234   -3.2512475 
