48
Energy =
C    -2.9297777    0.7940350    1.7307420 
C    -1.6469389    0.4655537    1.4348709 
C    -3.2870024    2.0988901    1.8680265 
C    -2.3564610    3.0670825    1.7074548 
C    -1.0718938    2.7445106    1.4112227 
C    -0.7085841    1.4397588    1.2766139 
H    -1.3788370   -0.5817008    1.3230625 
H    -2.6548798    4.1038536    1.8185106 
H    -0.3385250    3.5368210    1.2834472 
H    -3.6691611    0.0104878    1.8555975 
C     0.7190632    1.0813469    0.9286085 
C     1.0255774    1.2724037   -0.5773387 
H     0.9524028    0.0347857    1.2276071 
H     1.4061390    1.7186611    1.5306702 
C     2.5056621    1.0913936   -0.8818428 
O    -4.6005488    2.4715644    2.1712414 
H    -5.2364686    1.6891412    2.2803446 
O     3.3784866    0.6566891    0.1150053 
N     0.2149730    0.3529011   -1.3945931 
H     0.7907366    2.3244105   -0.8611574 
H     0.2997030   -0.6214562   -1.0180806 
H    -0.7939649    0.6266573   -1.3319341 
N     3.0021312    1.3664844   -2.2046589 
C     4.3877071    0.9706791   -2.5359102 
H     2.3891168    1.8847535   -2.8732666 
C     5.1172371    2.0710415   -3.2930471 
O     6.3263670    2.5433745   -2.7986447 
O     4.6386162    2.5925899   -4.4967688 
H     3.7755634    2.1573895   -4.7817351 
C     4.3650197   -0.3449563   -3.3420653 
H     4.9981506    0.8243685   -1.6130732 
C     3.7815175   -1.4801416   -2.5311027 
H     5.3966048   -0.6149228   -3.6614822 
H     3.7693666   -0.2098882   -4.2714471 
C     4.4089296   -2.2045705   -1.5924288 
C     5.6946339   -2.1426764   -1.1606317 
C     6.0868480   -2.9950490   -0.1707138 
C     5.1981587   -3.8844839    0.3676030 
C     3.9108790   -3.9258840   -0.0799953 
C     3.5471447   -3.0733763   -1.0609336 
H     6.3996111   -1.4317563   -1.5815479 
H     7.1101875   -2.9629057    0.1957201 
H     5.5180045   -4.5575823    1.1590161 
H     3.1924694   -4.6211757    0.3401132 
N     2.2628120   -2.9462261   -1.6561838 
C     2.4999770   -1.8819267   -2.5894560 
H     1.3868348   -3.4812505   -1.4574839 
H     1.7374158   -1.4254583   -3.2184080 
