48
Energy =
C    -4.3129206    1.4057801   -0.9118556 
C    -3.0705281    1.5990158   -0.4006012 
C    -4.5967489    1.7947173   -2.1836933 
C    -3.6341977    2.3755514   -2.9354249 
C    -2.3902662    2.5708579   -2.4293907 
C    -2.1015927    2.1853249   -1.1564478 
H    -2.8569360    1.2804249    0.6164682 
H    -3.8733453    2.6820597   -3.9478107 
H    -1.6295626    3.0390514   -3.0484525 
H    -5.0783497    0.9388482   -0.3015135 
C    -0.7100845    2.3868091   -0.5988302 
C     0.2911930    1.3280912   -1.1177816 
H    -0.7232494    2.3774993    0.5150128 
H    -0.3569610    3.4039600   -0.8836295 
C     1.7090581    1.6918951   -0.7174653 
O    -5.8654390    1.6078327   -2.7418918 
H    -6.5333653    1.1759496   -2.1127383 
O     2.0369434    1.8568450    0.6242981 
N    -0.0560998   -0.0126467   -0.6192918 
H     0.2703406    1.3194373   -2.2318837 
H    -0.1158335    0.0115268    0.4274142 
H    -0.9978987   -0.2908710   -0.9811550 
N     2.7505815    1.7463431   -1.7021487 
C     3.8523764    0.7769286   -1.5443486 
H     2.6466998    2.3923129   -2.5169706 
C     5.0898632    1.1954851   -2.3291508 
O     6.3154488    1.2565892   -1.6801800 
O     5.0473638    1.4484424   -3.7020340 
H     4.1085804    1.3930602   -4.0628136 
C     3.3651415   -0.6324547   -1.9525098 
H     4.1811510    0.7705413   -0.4753432 
C     4.3365604   -1.7061402   -1.5129360 
H     3.1863496   -0.6850752   -3.0472400 
H     2.3820545   -0.8401913   -1.4760932 
C     5.3513450   -2.2271269   -2.2224906 
C     5.7570642   -1.9631823   -3.4915057 
C     6.8401964   -2.6335963   -3.9788222 
C     7.4944402   -3.5481492   -3.2008857 
C     7.0706282   -3.7961907   -1.9292998 
C     5.9967701   -3.1203463   -1.4697084 
H     5.2505668   -1.2294422   -4.1101157 
H     7.1904911   -2.4317399   -4.9883616 
H     8.3607396   -4.0734814   -3.5949782 
H     7.5828053   -4.5125167   -1.2961366 
N     5.4082093   -3.2202349   -0.1806652 
C     4.3448503   -2.2652596   -0.2896233 
H     5.6770592   -3.8321723    0.6237398 
H     3.6559833   -2.0148991    0.5155685 
