48
Energy =
C    -1.8661548    4.1455332   -1.4058318 
C    -1.7629686    2.8256899   -1.7057649 
C    -0.8615353    5.0022451   -1.7337703 
C     0.2376828    4.5311530   -2.3653132 
C     0.3394444    3.2147291   -2.6759276 
C    -0.6555775    2.3508450   -2.3393228 
H    -2.5696180    2.1522246   -1.4300599 
H     1.0389068    5.2196253   -2.6134449 
H     1.2272530    2.8587453   -3.1895834 
H    -2.7517307    4.5127347   -0.8990926 
C    -0.5151938    0.8740648   -2.6453492 
C     0.1547699    0.0736369   -1.4980330 
H     0.0797415    0.7446784   -3.5771213 
H    -1.5137608    0.4405296   -2.8724539 
C     1.5447689    0.6006576   -1.1477831 
O    -0.9364418    6.3676507   -1.4352860 
H    -1.7857003    6.6368012   -0.9512703 
O     1.7784833    1.2159048    0.0823988 
N    -0.7284517    0.0056069   -0.3211323 
H     0.3202127   -0.9673719   -1.8549728 
H    -0.7899868    0.9509777    0.1281815 
H    -1.6947904   -0.2746032   -0.6066114 
N     2.6155561    0.4992499   -2.1071562 
C     3.8823023    1.1999940   -1.8148401 
H     2.5075048   -0.1298073   -2.9352734 
C     3.8558708    2.6104091   -2.3939431 
O     4.1742341    2.8203954   -3.7304353 
O     3.4301982    3.7028224   -1.6378263 
H     3.0524317    3.4183326   -0.7430222 
C     5.0547988    0.3536275   -2.3587223 
H     4.0276554    1.3106853   -0.7155925 
C     6.3947049    0.8568532   -1.8611726 
H     5.0221207    0.3257726   -3.4696437 
H     4.9270278   -0.6982012   -2.0192502 
C     7.3002386    1.5855284   -2.5372821 
C     7.2821685    2.0386715   -3.8178445 
C     8.3437721    2.7697055   -4.2632111 
C     9.3984777    3.0327042   -3.4343020 
C     9.3978947    2.5663946   -2.1537725 
C     8.3356986    1.8464486   -1.7355323 
H     6.4478315    1.8388263   -4.4823380 
H     8.3470367    3.1496885   -5.2821776 
H    10.2389117    3.6193384   -3.7969347 
H    10.2257978    2.7683716   -1.4826091 
N     8.1414148    1.2767185   -0.4489273 
C     6.8606320    0.6563962   -0.6148392 
H     8.7681425    1.3013988    0.3882351 
H     6.3379583    0.1090095    0.1668589 
