48
Energy =
C    -3.5570428    1.4769113    1.3385154 
C    -2.4688327    0.6689497    1.2733075 
C    -3.4176229    2.8237364    1.2106298 
C    -2.1879843    3.3529322    1.0168629 
C    -1.0961377    2.5499020    0.9512796 
C    -1.2303107    1.2017040    1.0833112 
H    -2.5979013   -0.4055982    1.3714311 
H    -2.0892209    4.4279068    0.9128857 
H    -0.1153242    2.9933316    0.7899392 
H    -4.5389490    1.0427406    1.4913812 
C    -0.0139548    0.3081983    0.9915732 
C     0.4504692    0.1057859   -0.4710070 
H    -0.2020366   -0.6784406    1.4700873 
H     0.8090844    0.7738751    1.5799133 
C     1.8122555   -0.5626503   -0.5511354 
O    -4.5193383    3.6837037    1.2727996 
H    -5.4035588    3.2099236    1.4202166 
O     2.4002416   -1.1269998    0.5783005 
N    -0.5438980   -0.6645674   -1.2354295 
H     0.5823511    1.1082001   -0.9445460 
H    -0.7938731   -1.5412401   -0.7192104 
H    -1.4187372   -0.0981807   -1.3385916 
N     2.6168577   -0.3776642   -1.7192578 
C     3.8253705    0.4475821   -1.5506161 
H     2.3420089   -0.8686756   -2.5997436 
C     3.4545645    1.9010004   -1.2569138 
O     3.2745131    2.8003513   -2.3022130 
O     3.2160131    2.3412500    0.0459148 
H     3.3363997    1.6034272    0.7263286 
C     4.7085892    0.3055571   -2.8084294 
H     4.4059171    0.0758739   -0.6736312 
C     6.0624446    0.9515916   -2.6124176 
H     4.1908000    0.7615673   -3.6837378 
H     4.8460008   -0.7706543   -3.0518798 
C     7.1281077    0.4113482   -2.0010080 
C     7.2813129   -0.8173805   -1.4435540 
C     8.4787614   -1.1211828   -0.8651275 
C     9.4916291   -0.2021787   -0.8498293 
C     9.3126276    1.0271229   -1.4118600 
C     8.1201508    1.3026419   -1.9803700 
H     6.4761086   -1.5462989   -1.4481277 
H     8.6276030   -2.0979304   -0.4105992 
H    10.4420451   -0.4507392   -0.3840505 
H    10.1029116    1.7701107   -1.4023685 
N     7.7230632    2.5183178   -2.5981947 
C     6.3730180    2.2096913   -2.9722658 
H     8.2689670    3.3981966   -2.7449036 
H     5.6853997    2.9117584   -3.4443436 
