48
Energy =
C    -0.7131719    4.6866360   -0.9327573 
C     0.3467151    4.1992481   -1.6266776 
C    -1.9801355    4.4474083   -1.3639171 
C    -2.1779111    3.7198017   -2.4859392 
C    -1.1223992    3.2279936   -3.1815690 
C     0.1497241    3.4638760   -2.7553355 
H     1.3542590    4.3872316   -1.2655500 
H    -3.1928972    3.5345446   -2.8191256 
H    -1.3040565    2.6436434   -4.0794307 
H    -0.5454047    5.2640113   -0.0301864 
C     1.3311599    2.9144557   -3.5301374 
C     1.8487530    1.5399802   -3.0216594 
H     2.1572765    3.6597823   -3.5264853 
H     1.0591676    2.8139743   -4.6043436 
C     2.4859171    1.6120712   -1.6234548 
O    -3.0942461    4.9374522   -0.6750746 
H    -2.8650131    5.4565128    0.1654942 
O     1.6312530    1.7441208   -0.5322786 
N     0.7777535    0.5294651   -3.0660276 
H     2.6117979    1.2081179   -3.7395641 
H     0.0446037    0.7517897   -2.3506738 
H     0.3183894    0.5358220   -4.0062982 
N     3.9052580    1.6749390   -1.3231951 
C     4.9222488    1.6757727   -2.4055845 
H     4.0274519    2.5141026   -0.7124432 
C     4.7192651    2.7607125   -3.4622131 
O     4.4983341    2.4253656   -4.7914530 
O     4.7227181    4.1106497   -3.1178171 
H     4.9649492    4.2538900   -2.1497195 
C     5.1235911    0.2399608   -2.9516993 
H     5.8907410    1.9594049   -1.9322532 
C     6.4756561    0.0767683   -3.6124386 
H     4.3380656   -0.0442779   -3.6781554 
H     5.0309384   -0.4882474   -2.1159933 
C     7.6372805   -0.2079115   -3.0037048 
C     7.8975926   -0.4427850   -1.6916529 
C     9.1848831   -0.7032453   -1.3234807 
C    10.1813024   -0.7211473   -2.2601861 
C     9.8965683   -0.4776120   -3.5711409 
C     8.6151603   -0.2255157   -3.9109862 
H     7.1085806   -0.4240940   -0.9450875 
H     9.4202485   -0.8962207   -0.2793822 
H    11.2051763   -0.9277918   -1.9584353 
H    10.6757929   -0.4826607   -4.3258731 
N     8.1119592    0.0673116   -5.2065235 
C     6.7179417    0.2586639   -4.9226032 
H     8.6183793    0.1241247   -6.1198815 
H     5.9666959    0.5451144   -5.6588676 
