48
Energy =
C     1.9093118    6.6081948   -5.1003872 
C     2.0768527    5.6030507   -4.2033052 
C     0.7198241    7.2617422   -5.1808826 
C    -0.2956316    6.9047922   -4.3621797 
C    -0.1353699    5.9004149   -3.4635540 
C     1.0539360    5.2441944   -3.3768551 
H     3.0386051    5.0887515   -4.1537522 
H    -1.2393208    7.4340584   -4.4375542 
H    -0.9661369    5.6273708   -2.8178431 
H     2.7293304    6.8866667   -5.7543183 
C     1.2341053    4.1117068   -2.3904562 
C     1.0590821    2.7255478   -3.0626421 
H     0.5273364    4.2101722   -1.5365280 
H     2.2462864    4.1995408   -1.9317203 
C     1.7136773    1.6333290   -2.2333483 
O     0.5142544    8.3002132   -6.0945374 
H     1.3231719    8.5088694   -6.6699098 
O     1.4374850    1.5357406   -0.8741139 
N    -0.3677891    2.4315089   -3.2837619 
H     1.5884777    2.7161621   -4.0466702 
H    -0.8855247    2.4486136   -2.3712653 
H    -0.7919816    3.1581115   -3.9073104 
N     2.8067086    0.8814729   -2.7725291 
C     4.1601959    1.3988070   -2.4954560 
H     2.6009424    0.0104897   -3.3085687 
C     4.3922528    2.7282315   -3.1969168 
O     4.7629926    3.8374276   -2.4505931 
O     4.1455533    2.9008458   -4.5589124 
H     3.9473362    2.0195994   -5.0131369 
C     5.2244878    0.3579712   -2.9046114 
H     4.2630914    1.6058584   -1.4031276 
C     5.1271341   -0.8990663   -2.0665331 
H     6.2402970    0.7934621   -2.7636837 
H     5.1379390    0.1247886   -3.9862763 
C     4.6190654   -2.0884230   -2.4329985 
C     4.0936160   -2.4886549   -3.6208763 
C     3.6372841   -3.7695150   -3.7301607 
C     3.7118327   -4.6227365   -2.6644510 
C     4.2441617   -4.2007920   -1.4827840 
C     4.6895560   -2.9296994   -1.3990576 
H     4.0332461   -1.8173060   -4.4708857 
H     3.2121166   -4.1144127   -4.6698258 
H     3.3452336   -5.6418642   -2.7589561 
H     4.3101571   -4.8642600   -0.6271979 
N     5.2709896   -2.2989725   -0.2672810 
C     5.5224241   -0.9861565   -0.7839734 
H     5.4664752   -2.6892447    0.6830087 
H     5.9598383   -0.1731152   -0.2087878 
