48
 energy: -9.062501286737 gnorm: 0.000610059106 xtb: 6.6.0 (2ccbbd7)
C            2.64534595681704        3.03431832597660        3.00799309156648
C            3.52448787705033        2.38974527890743        2.17155141936105
C            2.00539379607216        2.34107535120960        4.03554418913443
C            2.27900254637882        0.98162487623623        4.18418412849204
C            3.15718832152499        0.34369397234305        3.34078715664110
C            3.79457525640669        1.03645709090288        2.32255571430081
H            3.99840482740457        2.93640794783938        1.37403307317391
H            1.77824373863136        0.44466352319069        4.96996639361737
H            3.34877226389300       -0.70898759625443        3.45880236757201
H            2.43707396519782        4.08036942070532        2.87045486376896
C            4.72868362246919        0.33214075485914        1.38538876718944
C            4.03472144788770       -0.71491629057623        0.49313546275189
H            5.52286146880455       -0.14984641443530        1.96538776304096
H            5.24799521835854        1.07139538408466        0.77232098090770
C            2.69898662609272       -0.25911410372523       -0.07455837564061
O            1.12050531671095        2.95972571633869        4.89778569953592
H            1.01314107863783        3.90317199442694        4.65011033632790
O            1.71697210998813       -0.90455166560947        0.24003073769127
N            4.90764330113850       -1.27726430429333       -0.53723907644476
H            3.76662716941333       -1.56602977847243        1.14302190138796
H            5.09162685490419       -0.64765470571834       -1.30721890932342
H            5.80091335609788       -1.54915709301774       -0.14560320040154
N            2.57852245964671        0.83472348134330       -0.90556027677428
C            3.69735330468041        1.61140339006962       -1.43923744899762
H            1.68938436386524        0.99108563168989       -1.37609754774751
C            3.66600521050791        3.03932536328549       -0.98214073906892
O            4.83685237222185        3.73685967386136       -0.98404600777089
O            2.47702317264302        3.58840613249814       -0.56170506635263
H            1.78494494459305        2.89077336081967       -0.49813605210994
C            3.81313707925944        1.47374810330134       -2.97400714382260
H            4.60600634357018        1.18167458266360       -1.00957095714186
C            5.17878323662098        1.02463566257993       -3.37251604276097
H            3.57558659530490        2.42741220926817       -3.45648270344092
H            3.07277000750977        0.75258851087085       -3.33545037315775
C            6.39782794282014        1.55819326985469       -2.86452051053511
C            6.67064838386143        2.59016636760745       -1.95929660812847
C            7.96729774576875        2.86340916951470       -1.64341352065623
C            9.02089561237065        2.12602003995644       -2.21082991185945
C            8.77870336236299        1.10752466489923       -3.09301545699189
C            7.45059580781026        0.81209064389090       -3.42712903394950
H            5.71758349371906        3.19207155740363       -1.45799025398817
H            8.18477201586331        3.65641353476297       -0.94762663642480
H           10.03614657505465        2.36768523898868       -1.94347742211217
H            9.57836896868634        0.53589736197534       -3.52864732178944
N            6.88015748233681       -0.14482165724768       -4.24927288444268
C            5.51303894409715       -0.00781768373220       -4.21346018511264
H            7.40609285178374       -0.82900427048316       -4.79618662025096
H            4.81526858396033       -0.63500959070214       -4.74436876076539
