48
Energy =
C    -1.6326655    4.6743405   -1.6209027 
C    -0.2831887    4.5789156   -1.4981606 
C    -2.1786193    5.3109362   -2.6902509 
C    -1.3709234    5.8492432   -3.6308186 
C    -0.0221690    5.7562299   -3.5148338 
C     0.5334566    5.1182245   -2.4466399 
H     0.1345062    4.0658782   -0.6336969 
H    -1.8198106    6.3549325   -4.4791471 
H     0.6062189    6.1945908   -4.2859558 
H    -2.2756027    4.2391339   -0.8626702 
C     2.0441072    5.0069101   -2.3300216 
C     2.6379511    3.6903730   -2.9085426 
H     2.3520092    5.1139588   -1.2631841 
H     2.5200912    5.8664896   -2.8516876 
C     2.4792256    2.4831899   -1.9823801 
O    -3.5631689    5.4259002   -2.8462983 
H    -4.1021236    4.9935151   -2.1037190 
O     1.9878442    2.6583484   -0.6922416 
N     2.1141077    3.4107887   -4.2588907 
H     3.7425712    3.8340551   -2.9858765 
H     1.0881616    3.1979938   -4.2167656 
H     2.2478697    4.2458406   -4.8763354 
N     3.0738587    1.2167208   -2.3145192 
C     4.3415328    1.0138794   -1.5746260 
H     3.2389060    1.1913570   -3.3460897 
C     5.4287878    2.0100530   -1.9742075 
O     5.8976531    2.9155171   -1.0323953 
O     5.9148918    2.0979665   -3.2789894 
H     5.5480853    1.3712302   -3.8745035 
C     4.8114889   -0.4439314   -1.7620333 
H     4.1651652    1.1794055   -0.4834981 
C     3.8625482   -1.4150165   -1.0962422 
H     5.8301957   -0.5771733   -1.3336950 
H     4.8906740   -0.6859917   -2.8442825 
C     3.8207256   -1.7319352    0.2070457 
C     4.6005406   -1.3028785    1.2324516 
C     4.3435363   -1.7787898    2.4847596 
C     3.3218132   -2.6645882    2.6909228 
C     2.5498868   -3.0784820    1.6457897 
C     2.8249568   -2.5943446    0.4163750 
H     5.4073055   -0.5938824    1.0703724 
H     4.9519807   -1.4486123    3.3233371 
H     3.1212903   -3.0372321    3.6922246 
H     1.7324184   -3.7760789    1.7919929 
N     2.1409544   -2.8850317   -0.7945044 
C     2.8712359   -2.0715723   -1.7231183 
H     1.3292331   -3.5219651   -0.9625750 
H     2.6358822   -1.9800371   -2.7805764 
