48
Energy =
C    -4.1315583    2.0897569   -1.8754713 
C    -2.7979350    1.8988244   -2.0401847 
C    -4.9489622    1.0304380   -1.6320583 
C    -4.4247360   -0.2137690   -1.5532898 
C    -3.0920339   -0.4103822   -1.7166084 
C    -2.2705049    0.6455908   -1.9662689 
H    -2.1562763    2.7561642   -2.2271937 
H    -5.0860963   -1.0501090   -1.3556829 
H    -2.6881158   -1.4171462   -1.6453429 
H    -4.5421641    3.0917876   -1.9367894 
C    -0.7827930    0.4279219   -2.1291355 
C    -0.0671773    0.2770989   -0.7660136 
H    -0.3279141    1.2629129   -2.7068359 
H    -0.6208939   -0.4917680   -2.7361199 
C     1.3651110   -0.1907387   -0.9421270 
O    -6.3273334    1.1926227   -1.4578219 
H    -6.6409671    2.1544127   -1.5282176 
O     1.7838638   -1.3817244   -0.3608307 
N    -0.1182292    1.5363956   -0.0045460 
H    -0.5648530   -0.5271935   -0.1739943 
H     0.1872587    2.3418373   -0.6013171 
H    -1.1021077    1.7255442    0.2977837 
N     2.3141991    0.5876834   -1.6802374 
C     3.3524385    1.2742406   -0.8908417 
H     2.2153469    0.6717537   -2.7151545 
C     3.0198374    2.7432897   -0.6683623 
O     3.2957243    3.3149027    0.5674034 
O     2.5116190    3.5576569   -1.6830991 
H     2.4328565    3.0596914   -2.5557256 
C     4.7188764    1.1143496   -1.5863174 
H     3.4156675    0.8275042    0.1290502 
C     5.0988064   -0.3424093   -1.7415477 
H     5.5082064    1.6377768   -1.0020784 
H     4.6869481    1.6018724   -2.5862805 
C     5.5171996   -1.1751959   -0.7752965 
C     5.7279397   -0.9411751    0.5453624 
C     6.1526370   -1.9759270    1.3278993 
C     6.3594412   -3.2133634    0.7829751 
C     6.1423489   -3.4237202   -0.5465188 
C     5.7223860   -2.3849958   -1.2985180 
H     5.5586497    0.0409403    0.9763332 
H     6.3217702   -1.8194956    2.3913074 
H     6.6925478   -4.0354251    1.4121198 
H     6.2957852   -4.3999062   -0.9942786 
N     5.4350893   -2.3932016   -2.6893263 
C     5.0303568   -1.0329898   -2.8932682 
H     5.5108568   -3.1768330   -3.3776169 
H     4.6941990   -0.6282234   -3.8445568 
