48
Energy =
C    -1.6880578    2.1985601   -0.0947598 
C    -0.3709284    2.4515851    0.1085644 
C    -2.4333918    1.6258789    0.8877114 
C    -1.8541558    1.3108009    2.0686974 
C    -0.5373318    1.5632662    2.2784966 
C     0.2144125    2.1330679    1.2972726 
H     0.2119820    2.9115268   -0.6872045 
H    -2.4588197    0.8527699    2.8439778 
H    -0.0907145    1.3027063    3.2342683 
H    -2.1434454    2.4563792   -1.0447352 
C     1.6868771    2.4048933    1.5239971 
C     2.5284523    1.1083317    1.6088084 
H     1.8037053    2.9788784    2.4691584 
H     2.0888698    3.0575605    0.7154558 
C     2.3383941    0.1908138    0.4080939 
O    -3.7939313    1.3533316    0.7110817 
H    -4.1542053    1.6177249   -0.1993097 
O     1.8009318   -1.0757883    0.6003887 
N     3.9488530    1.4532193    1.8060723 
H     2.1803546    0.5057186    2.4823075 
H     4.2323095    2.2434751    1.1778368 
H     4.0832769    1.7983458    2.7861266 
N     2.4029090    0.6998000   -0.9269110 
C     3.7299814    0.9956922   -1.4883630 
H     1.5154503    0.8108749   -1.4634202 
C     3.8697094    2.4873156   -1.7433226 
O     2.7514573    3.2370256   -2.0910300 
O     5.1065217    3.1274793   -1.6667243 
H     5.8638722    2.4907445   -1.4680025 
C     3.9235225    0.1912691   -2.7892399 
H     4.5338239    0.7178839   -0.7662798 
C     4.0785690   -1.2861664   -2.4999809 
H     4.8348938    0.5462226   -3.3217624 
H     3.0712434    0.3686578   -3.4814795 
C     3.1073676   -2.2135828   -2.4476606 
C     1.7734621   -2.0971766   -2.6745372 
C     0.9937454   -3.2089441   -2.5463235 
C     1.5520079   -4.4079530   -2.1997409 
C     2.8937220   -4.5024079   -1.9788779 
C     3.6438766   -3.3883503   -2.1113764 
H     1.3251648   -1.1477754   -2.9436018 
H    -0.0784415   -3.1394054   -2.7119968 
H     0.9227549   -5.2878385   -2.0928083 
H     3.3517290   -5.4444655   -1.6977481 
N     5.0471221   -3.2722316   -1.9215022 
C     5.2448961   -1.8778960   -2.1854455 
H     5.7435097   -4.0095142   -1.6661387 
H     6.2052736   -1.3722248   -2.1187822 
