48
Energy =
C     1.3094401    5.3359309   -4.0487542 
C     1.0257829    4.8578683   -2.8107635 
C     2.2735517    6.2800590   -4.2131849 
C     2.9495140    6.7378952   -3.1365220 
C     2.6743416    6.2599938   -1.8970708 
C     1.7086688    5.3140454   -1.7252387 
H     0.2539536    4.0997270   -2.7018900 
H     3.7168220    7.4892094   -3.2833168 
H     3.2333997    6.6380015   -1.0464227 
H     0.7668804    4.9531691   -4.9068465 
C     1.4079516    4.7666254   -0.3435790 
C     2.1412082    3.4360594   -0.0272946 
H     0.3085626    4.6153868   -0.2426592 
H     1.6716561    5.5206873    0.4301432 
C     1.6367395    2.2676169   -0.8649727 
O     2.5859822    6.8012135   -5.4728585 
H     2.0794373    6.3562277   -6.2311320 
O     0.2636801    2.0655458   -0.9573268 
N     3.6019633    3.5991296   -0.1234510 
H     1.8918318    3.1587894    1.0212871 
H     3.8690361    3.8103491   -1.1143587 
H     3.9042620    4.4120214    0.4620427 
N     2.5060055    1.1576038   -1.1445296 
C     2.6503272    0.7017018   -2.5419915 
H     3.0731914    0.7499405   -0.3682441 
C     2.7062094    1.8578354   -3.5446719 
O     1.6318941    2.1110797   -4.3908246 
O     3.8285235    2.6843828   -3.6223078 
H     4.5580475    2.3787968   -2.9952637 
C     1.5462202   -0.3278213   -2.8656478 
H     3.6325690    0.1884509   -2.6451762 
C     1.7684397   -1.6269775   -2.1211186 
H     1.5407903   -0.5450839   -3.9573760 
H     0.5452962    0.0978807   -2.6340420 
C     1.2399775   -1.9941269   -0.9417761 
C     0.3579491   -1.3457432   -0.1388239 
C    -0.0210389   -1.9439279    1.0268523 
C     0.4813630   -3.1684017    1.3698701 
C     1.3656457   -3.8021107    0.5485542 
C     1.7242281   -3.1898516   -0.5996098 
H    -0.0452849   -0.3763869   -0.4091220 
H    -0.7278274   -1.4440025    1.6847765 
H     0.1739114   -3.6391675    2.3000885 
H     1.7740857   -4.7734745    0.8053202 
N     2.6297890   -3.6726409   -1.5815636 
C     2.6047064   -2.5979939   -2.5291451 
H     3.1700764   -4.5675258   -1.6025346 
H     3.1938092   -2.5710512   -3.4429326 
