48
Energy =
C    -2.3361997    1.4300637    1.2584106 
C    -1.7229645    0.3690734    0.6759946 
C    -1.6226169    2.2947186    2.0265969 
C    -0.2997522    2.0883053    2.2110167 
C     0.3194595    1.0292337    1.6307046 
C    -0.3836950    0.1714437    0.8388379 
H    -2.3172228   -0.3234783    0.0862112 
H     0.2549435    2.7806586    2.8348253 
H     1.3802183    0.8762468    1.8084288 
H    -3.4007213    1.5800411    1.1142507 
C     0.2965473   -1.0368235    0.2198384 
C     0.1552903   -1.1211239   -1.3319794 
H    -0.1703000   -1.9305093    0.6899407 
H     1.3726850   -1.0912430    0.4962123 
C     1.2165202   -0.3657194   -2.1375365 
O    -2.2239615    3.3955675    2.6449553 
H    -3.2129139    3.4922030    2.4414541 
O     1.2546842   -0.5890674   -3.5101026 
N     0.1383173   -2.5408002   -1.7250225 
H    -0.7998949   -0.6597092   -1.6703759 
H     0.9984646   -3.0246372   -1.3748076 
H    -0.6997207   -3.0191563   -1.3191946 
N     1.9527610    0.7498523   -1.5853950 
C     3.1162400    1.3342747   -2.2906642 
H     1.7507817    1.0694669   -0.6179579 
C     2.7023550    2.4670716   -3.2321009 
O     1.5081290    2.4007096   -3.9362563 
O     3.5408111    3.5621486   -3.4594363 
H     4.3823518    3.5282223   -2.9038590 
C     3.9736241    0.2607169   -3.0055375 
H     3.7519400    1.8054415   -1.5081758 
C     5.3683554    0.7650656   -3.3010882 
H     3.4871706   -0.0423127   -3.9616727 
H     4.0279077   -0.6582948   -2.3845706 
C     6.4190929    0.7541164   -2.4664947 
C     6.5190495    0.2760325   -1.1996232 
C     7.7134864    0.4014395   -0.5527772 
C     8.7755591    0.9999786   -1.1728601 
C     8.6491647    1.4782175   -2.4434371 
C     7.4586768    1.3387604   -3.0633344 
H     5.6751630   -0.1929970   -0.7027881 
H     7.8215744    0.0258986    0.4620623 
H     9.7237035    1.0984104   -0.6498324 
H     9.4793082    1.9618633   -2.9472927 
N     7.1109660    1.7831323   -4.3666799 
C     5.7367828    1.3795270   -4.4396680 
H     7.6986733    2.2722722   -5.0805676 
H     5.0737016    1.5910486   -5.2796130 
