48
Energy =
C     4.6134965   -3.6045356    3.8876917 
C     4.5686258   -2.7678651    2.8199741 
C     3.5119384   -3.7800323    4.6657193 
C     2.3717041   -3.1160829    4.3689737 
C     2.3211753   -2.2783176    3.3027095 
C     3.4223768   -2.0955280    2.5236431 
H     5.4557903   -2.6411490    2.2057840 
H     1.4993096   -3.2650102    4.9957819 
H     1.3940234   -1.7561766    3.0781684 
H     5.5318113   -4.1339799    4.1170931 
C     3.3580102   -1.1791456    1.3223501 
C     2.7183006   -1.8836589    0.1022874 
H     4.3704002   -0.7985594    1.0748881 
H     2.7582475   -0.2761824    1.5896367 
C     2.3102394   -0.8857729   -0.9775601 
O     3.5243707   -4.6365774    5.7715158 
H     4.4169458   -5.0901054    5.9319255 
O     0.9858408   -0.4697154   -1.0039942 
N     3.5911874   -2.9531080   -0.4209981 
H     1.7486290   -2.3340661    0.4292813 
H     4.5972158   -2.6724961   -0.3725872 
H     3.4949623   -3.7949757    0.1963311 
N     3.1306723   -0.5952921   -2.1239075 
C     4.3808743    0.1251435   -1.7914027 
H     3.3473641   -1.5170732   -2.5622885 
C     4.1617233    1.3833789   -0.9429738 
O     3.0808143    2.2188706   -1.1809448 
O     5.0900067    1.7689142    0.0257503 
H     5.8880766    1.1544015    0.0681016 
C     5.1352298    0.4701102   -3.0959082 
H     5.0434959   -0.5476882   -1.2083275 
C     4.2630724    1.1929780   -4.1069971 
H     5.5421837   -0.4615241   -3.5419268 
H     6.0211072    1.1035175   -2.8643156 
C     3.6142221    0.6500490   -5.1520803 
C     3.5732606   -0.6382759   -5.5833149 
C     2.8210766   -0.9314263   -6.6828173 
C     2.1273667    0.0542247   -7.3280276 
C     2.1814159    1.3394126   -6.8776175 
C     2.9338770    1.6052096   -5.7895595 
H     4.1148827   -1.4266340   -5.0724545 
H     2.7680522   -1.9552473   -7.0452716 
H     1.5255621   -0.1880153   -8.2004728 
H     1.6319379    2.1325680   -7.3732431 
N     3.1136808    2.8653387   -5.1610834 
C     3.9808339    2.5085528   -4.0748560 
H     2.7334673    3.8020189   -5.4302933 
H     4.3106303    3.1972870   -3.2968617 
