48
Energy =
C    -2.1864495    0.6337027   -3.9396847 
C    -1.3503960    1.2603876   -3.0749921 
C    -3.3149518    0.0291432   -3.4805183 
C    -3.5957579    0.0553362   -2.1573299 
C    -2.7597352    0.6780981   -1.2873790 
C    -1.6324951    1.2868729   -1.7441592 
H    -0.4429970    1.7356095   -3.4484036 
H    -4.4966389   -0.4324878   -1.8053404 
H    -2.9946344    0.6828897   -0.2271748 
H    -1.9438935    0.6161278   -4.9962036 
C    -0.6757322    1.9610757   -0.7888331 
C     0.6128966    1.1279971   -0.5909827 
H    -1.1497457    2.1719004    0.1940909 
H    -0.4057739    2.9534984   -1.2183791 
C     1.7198127    1.9662110    0.0191472 
O    -4.2008544   -0.6262228   -4.3439274 
H    -3.9090672   -0.6003882   -5.3146949 
O     1.5962824    2.4069606    1.3356990 
N     0.3401792   -0.0708582    0.2217036 
H     1.0067698    0.8221616   -1.5912103 
H    -0.0565854    0.2220153    1.1454766 
H    -0.3706930   -0.6622359   -0.2666225 
N     2.5986303    2.6721939   -0.8563922 
C     3.9453463    2.1231759   -1.0867595 
H     2.3175252    3.6122349   -1.2173128 
C     4.7873760    3.0935712   -1.8794448 
O     5.9109861    3.6690318   -1.3002230 
O     4.4242732    3.4528204   -3.1596569 
H     3.5229948    2.7618505   -3.4452515 
C     3.8443266    0.7384079   -1.7834351 
H     4.4958608    2.0496967   -0.1195412 
C     3.1402923    0.7360977   -3.1324622 
H     3.3216614    0.0268130   -1.1076755 
H     4.8768948    0.3533526   -1.9418287 
C     2.8821307   -0.3743623   -3.8316752 
C     3.2685240   -1.6535745   -3.5832426 
C     2.8466692   -2.6398143   -4.4264303 
C     2.0453883   -2.3339650   -5.4899973 
C     1.6661887   -1.0425262   -5.7080780 
C     2.1046600   -0.0873482   -4.8554681 
H     3.9051635   -1.8844122   -2.7368465 
H     3.1511281   -3.6672337   -4.2500001 
H     1.7102116   -3.1181824   -6.1625397 
H     1.0290391   -0.7763154   -6.5427175 
N     1.7890223    1.2906536   -4.9091737 
C     2.4818967    1.9613803   -3.7849210 
H     1.1238831    1.7519396   -5.5662758 
H     2.5864294    2.7633464   -4.5468997 
