48
Energy =
C    -4.3446813   -0.1466362    0.0245494 
C    -3.4292084   -0.0156987   -0.9687084 
C    -4.2612639    0.6298177    1.1378459 
C    -3.2597612    1.5316743    1.2499479 
C    -2.3414890    1.6671822    0.2598629 
C    -2.4240531    0.8962425   -0.8592646 
H    -3.5054917   -0.6475835   -1.8504074 
H    -3.2019963    2.1417295    2.1447300 
H    -1.5398896    2.3921985    0.3737801 
H    -5.1421703   -0.8753299   -0.0729731 
C    -1.3949672    1.0285539   -1.9600436 
C    -0.3225842   -0.0811184   -1.8850437 
H    -0.9090194    2.0277049   -1.9218714 
H    -1.9165668    0.9755987   -2.9426873 
C     0.5227999   -0.1044941   -3.1431815 
O    -5.1882893    0.5203583    2.1795097 
H    -5.9044336   -0.1799858    2.0211600 
O     0.4686815   -1.1993076   -3.9977917 
N     0.5168242    0.0814209   -0.6851083 
H    -0.8223795   -1.0791858   -1.8516629 
H     0.8816504    1.0609827   -0.6195537 
H    -0.0541564   -0.1027218    0.1734915 
N     1.4694461    0.9325346   -3.4238111 
C     2.8698652    0.5923389   -3.0874823 
H     1.0871738    1.8777091   -3.6275814 
C     3.7201498    1.7346804   -2.5118855 
O     4.9840845    1.4188756   -2.0329348 
O     3.3351121    3.0766632   -2.4581826 
H     2.3903901    3.2460919   -2.7389228 
C     3.5240264   -0.0215246   -4.3516175 
H     2.8701651   -0.1586572   -2.2586611 
C     4.2925113   -1.2851554   -4.0332916 
H     4.1653266    0.7193668   -4.8752157 
H     2.7302725   -0.2920165   -5.0876316 
C     5.6196112   -1.4181993   -3.8779799 
C     6.6091390   -0.4928140   -3.9742601 
C     7.8953186   -0.8943724   -3.7631703 
C     8.1717050   -2.1993522   -3.4630134 
C     7.1625965   -3.1107407   -3.3687262 
C     5.8983421   -2.6895382   -3.5812643 
H     6.3959021    0.5485003   -4.1961966 
H     8.7037348   -0.1697493   -3.8252720 
H     9.1992792   -2.5097408   -3.2917310 
H     7.3639011   -4.1483019   -3.1250023 
N     4.7134236   -3.4708965   -3.5206237 
C     3.7175642   -2.4827600   -3.8182251 
H     4.6009839   -4.4909647   -3.3185734 
H     2.6430102   -2.6715508   -3.8445888 
