48
Energy =
C    -4.1722148    0.1434437   -3.1398042 
C    -2.8217575    0.2694217   -3.1869504 
C    -4.8973714    0.8833384   -2.2588442 
C    -4.2647407    1.7448792   -1.4302771 
C    -2.9145154    1.8748747   -1.4729275 
C    -2.1847852    1.1396174   -2.3559467 
H    -2.2542549   -0.3315180   -3.8935994 
H    -4.8543483    2.3278867   -0.7314215 
H    -2.4250122    2.5688137   -0.7950021 
H    -4.6701343   -0.5517162   -3.8070948 
C    -0.6782101    1.2628315   -2.3958126 
C     0.0164391    0.1092148   -1.6360061 
H    -0.3490830    2.2426964   -1.9830535 
H    -0.3450532    1.2606883   -3.4591985 
C     1.5136812    0.1205314   -1.8910530 
O    -6.2899707    0.7762887   -2.1829085 
H    -6.6878577    0.1136250   -2.8394236 
O     2.0064377   -0.8042842   -2.8015610 
N    -0.2874791    0.1689027   -0.1928518 
H    -0.3379575   -0.8664538   -2.0492867 
H    -0.2387077    1.1559542    0.1530393 
H    -1.2728974   -0.1532711   -0.0385194 
N     2.3074663    1.2223152   -1.3850166 
C     3.7688685    1.3870157   -1.6536379 
H     2.1325856    1.2659332   -0.3567580 
C     4.0021174    2.8122592   -2.1581710 
O     4.3308665    3.0426783   -3.4901471 
O     3.8862959    3.9096033   -1.3043079 
H     3.5592523    3.6390430   -0.3896480 
C     4.4396414    0.3648766   -2.6110138 
H     4.3413767    1.3579747   -0.7026382 
C     4.7027354   -1.0743169   -2.1584069 
H     5.4420250    0.7689289   -2.8796338 
H     3.8808852    0.3586722   -3.5744229 
C     4.4790012   -1.7308633   -0.9890330 
C     3.9222535   -1.3293409    0.1888248 
C     3.8212864   -2.2243446    1.2123621 
C     4.2724963   -3.5017326    1.0606244 
C     4.8264968   -3.8940626   -0.1167209 
C     4.9154383   -2.9932200   -1.1172711 
H     3.5458180   -0.3395436    0.3517484 
H     3.3722434   -1.9195431    2.1548837 
H     4.1852242   -4.2097548    1.8811255 
H     5.1875431   -4.9076264   -0.2556152 
N     5.4590214   -3.2270873   -2.4036007 
C     5.2793689   -1.9466016   -3.0092626 
H     5.8845075   -4.0976357   -2.7976745 
H     5.5681632   -1.7158610   -4.0327585 
