48
Energy =
C     3.6441368    4.1763729    1.3508756 
C     2.5351110    3.4125148    1.5213505 
C     3.6812663    5.1171941    0.3696115 
C     2.6101718    5.2780654   -0.4420236 
C     1.4970123    4.5196788   -0.2711191 
C     1.4494571    3.5897301    0.7205235 
H     2.5194985    2.6414121    2.2904256 
H     2.6596915    6.0114297   -1.2393504 
H     0.6524560    4.6521704   -0.9426547 
H     4.5032343    4.0303840    1.9965203 
C     0.2194006    2.7263671    0.9046048 
C     0.1903656    1.5399451   -0.0844106 
H    -0.6897520    3.3498148    0.7581201 
H     0.1680711    2.3383398    1.9463675 
C     1.4354605    0.6768828    0.0039573 
O     4.8067387    5.9265087    0.1767153 
H     5.5674036    5.7425536    0.8204156 
O     2.0308355    0.3926390    1.2311799 
N    -1.0127991    0.7279757    0.1434104 
H     0.1581348    1.9427374   -1.1251392 
H    -0.9931234    0.3433062    1.1182516 
H    -1.8651761    1.3281437    0.0529193 
N     2.0456647    0.1820388   -1.1883575 
C     3.3217442    0.8086375   -1.5752127 
H     1.6234897   -0.6502603   -1.6584326 
C     3.0833474    2.1039280   -2.3438379 
O     1.9558906    2.2441472   -3.1447395 
O     4.0186267    3.1395776   -2.3300042 
H     4.8171305    2.9376532   -1.7475281 
C     4.1438302   -0.1785835   -2.4324926 
H     3.9053242    1.0823039   -0.6659321 
C     4.6193740   -1.4256842   -1.7034199 
H     5.0410013    0.3482967   -2.8285466 
H     3.5303060   -0.4884130   -3.3092096 
C     5.3925957   -2.3811512   -2.2444068 
C     5.9132018   -2.4677314   -3.4960334 
C     6.6767079   -3.5544264   -3.8071089 
C     6.9054861   -4.5275917   -2.8739506 
C     6.3717804   -4.4197479   -1.6240685 
C     5.6207170   -3.3348578   -1.3410124 
H     5.7308125   -1.6962653   -4.2388707 
H     7.1046961   -3.6478051   -4.8024444 
H     7.5142291   -5.3912969   -3.1295562 
H     6.5418966   -5.1831739   -0.8724633 
N     4.9766562   -3.0339599   -0.1133702 
C     4.3483971   -1.7836072   -0.4300754 
H     4.9654384   -3.5736709    0.7824540 
H     3.7328179   -1.2237861    0.2709554 
