48
Energy =
C     1.2491451   -1.6506792    4.8487711 
C     0.6989384   -1.5730425    3.6105138 
C     1.9689730   -0.6089597    5.3438332 
C     2.1311428    0.5053464    4.5960858 
C     1.5797627    0.5900016    3.3595296 
C     0.8670946   -0.4535411    2.8511305 
H     0.1211197   -2.4132154    3.2359981 
H     2.7100289    1.3287454    4.9989972 
H     1.7235794    1.4947490    2.7760158 
H     1.1101954   -2.5475023    5.4426582 
C     0.2434910   -0.3594246    1.4692798 
C     1.2194830   -0.6523675    0.2981748 
H    -0.1874959    0.6580224    1.3355503 
H    -0.6197491   -1.0565615    1.3943642 
C     2.3284472    0.3795255    0.1852908 
O     2.5461181   -0.6561852    6.6173378 
H     2.3898698   -1.5300959    7.1070009 
O     3.4314027    0.3463891    1.0363547 
N     1.7713665   -2.0214523    0.3505937 
H     0.6236286   -0.5405664   -0.6390067 
H     1.3839035   -2.5779236    1.1450642 
H     1.5238119   -2.5373441   -0.5253412 
N     2.1442916    1.5206892   -0.6671030 
C     3.3456152    1.7530932   -1.5016348 
H     2.0282777    2.3303951   -0.0128323 
C     3.3101004    3.1404944   -2.1309942 
O     2.7374844    3.3470608   -3.3815953 
O     3.8622118    4.2235738   -1.4611573 
H     4.8636658    4.2156954   -1.5848598 
C     3.4485395    0.6452835   -2.5795379 
H     4.2649245    1.7504010   -0.8658433 
C     4.7573025    0.7261787   -3.3310015 
H     2.5885597    0.7319767   -3.2823541 
H     3.3657046   -0.3623526   -2.1180229 
C     5.9431235    0.2538890   -2.9187076 
C     6.2637623   -0.4181432   -1.7829909 
C     7.5648979   -0.7785976   -1.5907088 
C     8.5147413   -0.4626029   -2.5228773 
C     8.1693113    0.2181156   -3.6528452 
C     6.8750733    0.5611162   -3.8218814 
H     5.5124343   -0.6630773   -1.0351386 
H     7.8481243   -1.3165399   -0.6886455 
H     9.5502476   -0.7511416   -2.3599134 
H     8.9118852    0.4830692   -4.3979659 
N     6.3118521    1.2870510   -4.9059027 
C     4.9356251    1.3589919   -4.5040947 
H     6.7771874    1.6648047   -5.7633294 
H     4.1541054    1.8913096   -5.0488308 
