48
Energy =
C     1.3849930   -2.4264536    1.4266363 
C     1.6911013   -1.1062652    1.3606277 
C     0.1411423   -2.8205272    1.8082912 
C    -0.7881338   -1.8886096    2.1203630 
C    -0.4883639   -0.5665579    2.0506595 
C     0.7554161   -0.1660838    1.6684131 
H     2.6812416   -0.8045722    1.0287339 
H    -1.7769844   -2.2151205    2.4209377 
H    -1.2521629    0.1660709    2.2943577 
H     2.1347413   -3.1638836    1.1622723 
C     1.0875249    1.3098715    1.5584520 
C     0.9528093    1.8684992    0.1169206 
H     2.1252629    1.4781841    1.9219872 
H     0.4349479    1.8980554    2.2399404 
C     1.9587769    1.2381586   -0.8432214 
O    -0.2079283   -4.1737535    1.8854630 
H     0.5456766   -4.8034967    1.6345420 
O     1.6474037    0.0131632   -1.4157136 
N    -0.4319365    1.7461253   -0.3715413 
H     1.2060127    2.9520005    0.1431610 
H    -0.6471763    0.7320326   -0.5320186 
H    -1.0993294    2.0959915    0.3533820 
N     3.3241609    1.7069473   -0.8338321 
C     4.4109735    1.2353574   -1.7341551 
H     3.5483562    2.4682824   -0.1529355 
C     5.2115513    2.4373660   -2.2381986 
O     4.9521012    2.9740638   -3.4946120 
O     6.1918283    3.0398223   -1.4483751 
H     6.2359041    2.6350861   -0.5254677 
C     3.9585837    0.3316277   -2.9293940 
H     5.1241989    0.6638643   -1.1059010 
C     4.0459367   -1.1612511   -2.6289787 
H     4.6237839    0.4953703   -3.8064252 
H     2.9594952    0.6540121   -3.2826269 
C     3.1143885   -2.1116216   -2.8556103 
C     1.8480595   -2.0084563   -3.3383662 
C     1.1083633   -3.1462136   -3.4848355 
C     1.6426194   -4.3618184   -3.1638493 
C     2.9177508   -4.4474083   -2.6931251 
C     3.6254057   -3.3074757   -2.5482463 
H     1.4110490   -1.0428113   -3.5699088 
H     0.0848720   -3.0854304   -3.8486240 
H     1.0472627   -5.2645680   -3.2812407 
H     3.3595439   -5.4056287   -2.4397441 
N     4.9682984   -3.1918841   -2.1066542 
C     5.1679649   -1.7776511   -2.2053887 
H     5.6328829   -3.9393313   -1.7984739 
H     6.1192585   -1.2859951   -2.0133158 
