48
Energy =
C    -2.0650006   -3.3293988   -3.0493380 
C    -0.7940174   -3.3590764   -2.5745008 
C    -2.3623557   -2.6067431   -4.1617275 
C    -1.3838303   -1.9205857   -4.7932218 
C    -0.1110071   -1.9497031   -4.3247153 
C     0.1932735   -2.6602207   -3.2031368 
H    -0.5737097   -3.9483346   -1.6889829 
H    -1.6322167   -1.3471013   -5.6794146 
H     0.6601230   -1.3969189   -4.8539552 
H    -2.8423163   -3.8874346   -2.5385487 
C     1.6168706   -2.7020656   -2.6742859 
C     1.9424511   -1.6594357   -1.5679388 
H     2.3346803   -2.5762639   -3.5156388 
H     1.8165441   -3.7190963   -2.2701634 
C     2.1513780   -0.2405697   -2.0818472 
O    -3.6611907   -2.5574123   -4.6783196 
H    -4.3388263   -3.0876458   -4.1417606 
O     1.4127158    0.2591388   -3.1465883 
N     0.9629954   -1.6936041   -0.4704022 
H     2.9315242   -1.9515185   -1.1466768 
H     0.0343408   -1.3462197   -0.8133351 
H     0.8368874   -2.6765446   -0.1347980 
N     3.0676665    0.6279384   -1.3999448 
C     4.3252526    1.0512551   -2.0558647 
H     2.8447476    0.8875163   -0.4130279 
C     4.2266273    2.4948901   -2.5505915 
O     3.1110187    2.9131331   -3.2646746 
O     5.2722705    3.4027284   -2.3628738 
H     6.0741031    2.9804866   -1.9195458 
C     4.7579759    0.0797455   -3.1841045 
H     5.1163411    1.0271660   -1.2748984 
C     6.1471387    0.3952639   -3.6942942 
H     4.0275784    0.1147290   -4.0241934 
H     4.7554814   -0.9620691   -2.7953523 
C     6.4718421    1.2020788   -4.7181758 
C     5.6744642    1.9070556   -5.5620498 
C     6.2649659    2.6709943   -6.5250024 
C     7.6274946    2.7189732   -6.6303726 
C     8.4083418    2.0045713   -5.7710639 
C     7.8006712    1.2560053   -4.8265938 
H     4.5917341    1.8825119   -5.4761635 
H     5.6470855    3.2509745   -7.2065952 
H     8.0895247    3.3346003   -7.3980543 
H     9.4904634    2.0368827   -5.8367905 
N     8.4254518    0.4560762   -3.8322278 
C     7.2832206   -0.0608899   -3.1384269 
H     9.4431164    0.2918346   -3.6562552 
H     7.3357438   -0.7197571   -2.2751883 
