48
Energy =
C     1.4835002   -1.5479938   -4.2411030 
C     1.0079773   -0.4557976   -3.5944630 
C     1.7285313   -1.4998494   -5.5766090 
C     1.4864444   -0.3575953   -6.2592792 
C     1.0027697    0.7378035   -5.6192691 
C     0.7621899    0.6960446   -4.2800538 
H     0.8371463   -0.5076927   -2.5207229 
H     1.6843065   -0.3332686   -7.3252676 
H     0.8133598    1.6455884   -6.1854963 
H     1.6692368   -2.4582715   -3.6850065 
C     0.2406344    1.9190380   -3.5531419 
C     1.3569636    2.8248319   -2.9748632 
H    -0.4150958    1.5865725   -2.7152180 
H    -0.4151149    2.5125452   -4.2268221 
C     2.2916427    2.0737210   -2.0465079 
O     2.2287082   -2.6071561   -6.2695291 
H     2.3722791   -3.4221422   -5.6835488 
O     1.8415974    1.7634122   -0.7691277 
N     2.0794851    3.5396872   -4.0408621 
H     0.8727592    3.5807473   -2.3111876 
H     2.5491676    2.8595152   -4.6826315 
H     1.4031950    4.0903396   -4.6204004 
N     3.4866983    1.4441846   -2.5345355 
C     4.6850258    1.5197476   -1.6788479 
H     3.5195360    1.0477541   -3.5006893 
C     5.6640276    2.5913042   -2.1649780 
O     7.0297813    2.3295895   -2.1663020 
O     5.2441274    3.8674189   -2.5375723 
H     4.2399333    3.9495760   -2.5124559 
C     5.3457191    0.1205467   -1.6326700 
H     4.4152487    1.8157860   -0.6390352 
C     4.3780239   -0.9818878   -1.2399867 
H     6.1839273    0.1258615   -0.9003870 
H     5.7926487   -0.0860231   -2.6268581 
C     4.1960854   -2.1616192   -1.8614962 
C     4.7699811   -2.6579319   -2.9902624 
C     4.4114963   -3.9060647   -3.4075996 
C     3.4970096   -4.6352648   -2.7002060 
C     2.9337930   -4.1196998   -1.5713795 
C     3.3019665   -2.8817270   -1.1798401 
H     5.4974482   -2.0902900   -3.5599500 
H     4.8582557   -4.3230675   -4.3074997 
H     3.2197816   -5.6311918   -3.0369508 
H     2.2087014   -4.6849837   -0.9957622 
N     2.8422033   -2.1756136   -0.0386568 
C     3.5926280   -0.9600440   -0.1470112 
H     2.1505650   -2.4595609    0.6919271 
H     3.5253582   -0.1380735    0.5614066 
