48
Energy =
C    -1.2153685   -0.5651258   -2.9014299 
C    -1.1945624    0.7837306   -2.7521142 
C    -0.2429428   -1.1888665   -3.6191979 
C     0.7428431   -0.4570196   -4.1851292 
C     0.7655724    0.8920506   -4.0444088 
C    -0.2062483    1.5221687   -3.3275324 
H    -1.9699406    1.2668939   -2.1627970 
H     1.5187003   -0.9669505   -4.7441569 
H     1.5783410    1.4597367   -4.4907500 
H    -2.0081451   -1.1436593   -2.4392048 
C    -0.1485704    3.0192678   -3.1100436 
C     0.5603006    3.3793591   -1.7834574 
H    -1.1826254    3.4290041   -3.1025485 
H     0.3744954    3.5126485   -3.9605625 
C     2.0026355    2.8922727   -1.7645226 
O    -0.2315358   -2.5773944   -3.7865229 
H    -1.0032390   -3.0521874   -3.3307924 
O     2.9037589    3.4297522   -2.6814344 
N     0.4929695    4.8314184   -1.5615710 
H     0.0365776    2.8743498   -0.9386000 
H     0.9496112    5.3408299   -2.3566024 
H    -0.5062502    5.1408716   -1.5154402 
N     2.3056225    1.6246896   -1.1598136 
C     3.4971778    1.4932103   -0.2983748 
H     1.6260278    0.8369385   -1.2562520 
C     3.5842137    2.5613664    0.7967681 
O     3.2902943    2.1999406    2.1068772 
O     3.9539194    3.8835592    0.5429765 
H     4.1036064    4.0578956   -0.4390722 
C     4.7811555    1.3698559   -1.1537932 
H     3.3921608    0.5383038    0.2624633 
C     4.6403546    0.3112229   -2.2279896 
H     5.6479016    1.1163802   -0.5041195 
H     5.0244589    2.3407043   -1.6354694 
C     4.6419085   -1.0201491   -2.0579860 
C     4.8094851   -1.7539829   -0.9279327 
C     4.7490742   -3.1134045   -1.0232590 
C     4.5251426   -3.7117622   -2.2325264 
C     4.3646935   -2.9545114   -3.3547609 
C     4.4316412   -1.6121655   -3.2352810 
H     4.9909473   -1.2807201    0.0319061 
H     4.8783012   -3.7245857   -0.1331955 
H     4.4742124   -4.7955945   -2.3004095 
H     4.1847629   -3.4133552   -4.3210810 
N     4.2909887   -0.6503851   -4.2712930 
C     4.4259825    0.5697480   -3.5302572 
H     4.1125562   -0.7954412   -5.2911952 
H     4.3496081    1.5652207   -3.9622359 
