48
Energy =
C    -0.4082158    1.2632873    4.0006037 
C     0.9430589    1.2650815    3.8740123 
C    -1.1555462    0.3391476    3.3400426 
C    -0.5445757   -0.5784290    2.5572749 
C     0.8058210   -0.5817680    2.4274815 
C     1.5606178    0.3428858    3.0837852 
H     1.5256525    2.0112230    4.4082764 
H    -1.1509186   -1.3111208    2.0357116 
H     1.2763117   -1.3315305    1.7965785 
H    -0.8897387    2.0026489    4.6317994 
C     3.0698341    0.3521872    2.9319271 
C     3.5669382    1.1270658    1.6849319 
H     3.4400060   -0.6972296    2.8817311 
H     3.5406549    0.7852459    3.8417759 
C     3.1056847    0.4862697    0.3748764 
O    -2.5492210    0.3099533    3.4486972 
H    -2.9318423    1.0305366    4.0512055 
O     3.2724700   -0.8842445    0.2074636 
N     3.2188314    2.5567079    1.7811874 
H     4.6773835    1.0394471    1.6628818 
H     2.1812175    2.6750137    1.8637591 
H     3.6426629    2.9593015    2.6504940 
N     2.7295542    1.2671851   -0.7741261 
C     3.9061377    1.8929999   -1.4288047 
H     2.0247704    1.9719487   -0.4618041 
C     3.5598128    3.2316548   -2.0931018 
O     3.7069187    3.4133994   -3.4615679 
O     3.1516754    4.3247926   -1.3291299 
H     3.1792552    4.1209315   -0.3416556 
C     4.5587856    0.8754014   -2.4001021 
H     4.6810733    2.1651340   -0.6750920 
C     3.6061122    0.3320985   -3.4541002 
H     4.9400820    0.0136648   -1.8093977 
H     5.4507835    1.3358110   -2.8727877 
C     3.6144692    0.5820415   -4.7774122 
C     4.4258112    1.3855776   -5.5146597 
C     4.2268653    1.4523362   -6.8626576 
C     3.2354341    0.7187434   -7.4515104 
C     2.4352829   -0.0842032   -6.6955949 
C     2.6483469   -0.1297241   -5.3637462 
H     5.2040013    1.9835081   -5.0522583 
H     4.8553882    2.0990901   -7.4700761 
H     3.0813361    0.7790907   -8.5259156 
H     1.6441292   -0.6735679   -7.1462918 
N     1.9395918   -0.9094413   -4.4132478 
C     2.6253135   -0.5557282   -3.2049373 
H     1.1413053   -1.5694837   -4.5559158 
H     2.3931700   -0.9670987   -2.2251812 
