48
Energy =
C    -0.3239656    6.1697858   -0.7778625 
C    -0.1572755    4.9955430   -1.4370179 
C    -0.9452346    6.1924572    0.4314225 
C    -1.3937386    5.0381041    0.9735919 
C    -1.2273713    3.8610786    0.3205023 
C    -0.6067843    3.8316676   -0.8916641 
H     0.3501658    4.9931820   -2.3984072 
H    -1.8854263    5.0691427    1.9389781 
H    -1.5913644    2.9447143    0.7762300 
H     0.0452312    7.0890775   -1.2193955 
C    -0.4088505    2.5176394   -1.6209244 
C     0.9608204    1.8505240   -1.3387611 
H    -0.5175858    2.6840433   -2.7160874 
H    -1.2233711    1.8103123   -1.3485616 
C     2.1325326    2.6713605   -1.8595873 
O    -1.1368854    7.3854535    1.1367210 
H    -0.7535288    8.2022944    0.6730140 
O     2.6616237    3.7209660   -1.1153356 
N     1.1142192    1.5191369    0.0873123 
H     0.9910413    0.8961352   -1.9119187 
H     1.2132532    2.4023790    0.6443892 
H     0.2600736    1.0247423    0.4349937 
N     2.6584555    2.4188759   -3.1683884 
C     4.0874148    2.0587859   -3.2410676 
H     2.0113234    2.4294720   -3.9888210 
C     4.6322677    2.2245477   -4.6559305 
O     5.7467761    3.0259542   -4.8660349 
O     4.0594941    1.5726811   -5.7507291 
H     3.2773653    0.9992053   -5.4765451 
C     4.2866319    0.6217802   -2.7030966 
H     4.6772954    2.7769122   -2.6188434 
C     5.7529701    0.3025502   -2.5058959 
H     3.8097779   -0.1208078   -3.3774842 
H     3.7773648    0.5144425   -1.7189506 
C     6.5817753   -0.2952396   -3.3781627 
C     6.3370669   -0.7871410   -4.6200919 
C     7.3711446   -1.3453952   -5.3121346 
C     8.6204808   -1.4045056   -4.7595993 
C     8.8436158   -0.9039031   -3.5114778 
C     7.8043928   -0.3565835   -2.8466395 
H     5.3499953   -0.7354051   -5.0674181 
H     7.2014282   -1.7381940   -6.3117207 
H     9.4402175   -1.8464310   -5.3202917 
H     9.8296931   -0.9369067   -3.0610449 
N     7.8266866    0.2271221   -1.5516469 
C     6.4599782    0.6350536   -1.4110252 
H     8.6241890    0.3253529   -0.8824190 
H     6.0601926    1.1584070   -0.5445496 
