48
Energy =
C    -1.8449831    4.4602758   -5.8269910 
C    -1.2817273    3.9337556   -4.7100889 
C    -1.6948793    3.8379378   -7.0267995 
C    -0.9804699    2.6919248   -7.1001593 
C    -0.4148502    2.1609884   -5.9867020 
C    -0.5642937    2.7790040   -4.7830383 
H    -1.4104016    4.4424481   -3.7576659 
H    -0.8664843    2.2058638   -8.0628399 
H     0.1585558    1.2415021   -6.0687295 
H    -2.4153966    5.3802204   -5.7582575 
C     0.0739739    2.2018210   -3.5395877 
C     1.3544603    2.9734007   -3.1233739 
H     0.3128667    1.1240098   -3.6795550 
H    -0.6734901    2.2408931   -2.7128817 
C     1.7680888    2.5901034   -1.7222643 
O    -2.2626751    4.3535105   -8.1966427 
H    -2.7773219    5.2163581   -8.0587895 
O     0.9991268    3.0097347   -0.6442884 
N     2.4533747    2.7393970   -4.0854217 
H     1.1448530    4.0673241   -3.0654308 
H     2.6197036    1.7075061   -4.1601490 
H     2.1012804    2.9836637   -5.0431257 
N     2.7030871    1.5270506   -1.5273355 
C     4.1201178    1.7725193   -1.8678459 
H     2.3369238    0.6002388   -1.2158523 
C     4.3785860    3.0221030   -2.7541638 
O     3.5467549    3.4302620   -3.8379426 
O     5.5163616    3.8021823   -2.5266078 
H     6.1097900    3.4313149   -1.8004868 
C     4.7178111    0.4845921   -2.4790918 
H     4.6422886    1.9627797   -0.9048375 
C     6.2163614    0.5829173   -2.6626147 
H     4.2292964    0.2460084   -3.4463893 
H     4.5022608   -0.3743201   -1.8054459 
C     6.8729517    1.0087175   -3.7544854 
C     6.3930493    1.4294641   -4.9533815 
C     7.2852262    1.8275780   -5.9046641 
C     8.6280363    1.8000572   -5.6476866 
C     9.0869479    1.3768381   -4.4357347 
C     8.1845154    0.9877587   -3.5106644 
H     5.3271310    1.4677100   -5.1576753 
H     6.9247502    2.1777487   -6.8688507 
H     9.3316802    2.1246126   -6.4100562 
H    10.1482910    1.3565107   -4.2132288 
N     8.4495788    0.5328149   -2.1907980 
C     7.1206810    0.2979668   -1.7091563 
H     9.3672444    0.4055802   -1.7055146 
H     6.8844929   -0.0509244   -0.7067924 
