48
Energy =
C    -1.4367390    5.5074883   -0.5420375 
C    -0.3535020    4.9186226   -1.1114581 
C    -2.5069881    5.8521156   -1.3060011 
C    -2.4873893    5.6017403   -2.6345874 
C    -1.4088905    5.0101740   -3.2080076 
C    -0.3331159    4.6638371   -2.4482767 
H     0.4913510    4.6247646   -0.4871499 
H    -3.3483307    5.8799107   -3.2322290 
H    -1.4161238    4.8169872   -4.2769992 
H    -1.4480832    5.6947929    0.5263667 
C     0.8764763    4.0095332   -3.0854005 
C     0.8904315    2.4570710   -3.0004815 
H     1.8003986    4.4272814   -2.6241386 
H     0.9406262    4.3056725   -4.1548456 
C     1.1876111    1.9274294   -1.6024099 
O    -3.6368084    6.4634551   -0.7526508 
H    -3.5819803    6.5967989    0.2511914 
O     0.3136368    2.1630103   -0.5499923 
N    -0.3515742    1.8791856   -3.5397257 
H     1.7359440    2.1059314   -3.6305833 
H    -1.1329586    2.0573941   -2.8607378 
H    -0.6058687    2.3401398   -4.4431789 
N     2.3114841    1.0728422   -1.3543202 
C     3.6466191    1.6721135   -1.1257808 
H     2.1755725    0.0526715   -1.5216279 
C     3.6519992    3.2037568   -1.1099455 
O     4.2589470    3.9278950   -2.1232945 
O     2.9802497    3.9160834   -0.1184280 
H     2.4950429    3.2871020    0.5124303 
C     4.7101392    1.0272187   -2.0588616 
H     3.9471101    1.4080934   -0.0877568 
C     4.3456589    1.0228076   -3.5338812 
H     4.8612564   -0.0279729   -1.7408552 
H     5.6910352    1.5263192   -1.9043916 
C     4.8082107    1.8390486   -4.5004451 
C     5.7074133    2.8557785   -4.4368907 
C     6.0172672    3.5250782   -5.5844336 
C     5.4406659    3.1663062   -6.7702435 
C     4.5521865    2.1346825   -6.8160961 
C     4.2570553    1.4924841   -5.6665641 
H     6.1729685    3.1449643   -3.5004681 
H     6.7267965    4.3486593   -5.5545197 
H     5.6949944    3.7028123   -7.6809767 
H     4.0935597    1.8301561   -7.7508231 
N     3.3858215    0.3839822   -5.5094897 
C     3.5151769    0.1302172   -4.1061844 
H     2.8070278   -0.1124711   -6.2256134 
H     3.0185053   -0.6858863   -3.5885650 
