48
Energy =
C     1.8865242    5.5205916   -1.8221574 
C     1.9740150    4.9830993   -0.5793966 
C     0.8848018    5.1454204   -2.6612579 
C    -0.0293980    4.2401229   -2.2464209 
C     0.0595634    3.6900004   -1.0091654 
C     1.0700801    4.0511319   -0.1690689 
H     2.7802632    5.3013240    0.0742335 
H    -0.8255135    3.9513928   -2.9241950 
H    -0.6721862    2.9450788   -0.7055132 
H     2.6284254    6.2422938   -2.1474320 
C     1.1928208    3.3990239    1.1935272 
C     2.1970710    2.2131418    1.2573826 
H     0.1920399    3.0292636    1.5127224 
H     1.4666479    4.1691483    1.9478495 
C     2.1455652    1.2650555    0.0599796 
O     0.7723943    5.6690328   -3.9533676 
H     1.5273961    6.2988294   -4.2055553 
O     1.4284357    0.0810704    0.1723738 
N     3.5618461    2.6876575    1.5406684 
H     1.8829974    1.5706501    2.1155351 
H     3.8441273    3.4323161    0.8613705 
H     3.5926950    3.1259446    2.4911184 
N     2.6452227    1.6294976   -1.2347044 
C     4.1040506    1.6494326   -1.4374655 
H     1.9711302    1.9835418   -1.9468080 
C     4.5772615    3.0248095   -1.8940501 
O     5.4357072    3.7505305   -1.0792944 
O     4.1717477    3.5938149   -3.1020820 
H     3.4783113    3.0326289   -3.5722553 
C     4.4677920    0.5348531   -2.4380402 
H     4.6430027    1.4512608   -0.4794281 
C     5.9655535    0.3684729   -2.5598404 
H     4.0289537    0.7467593   -3.4372793 
H     4.0084970   -0.4228157   -2.1041180 
C     6.7570503   -0.3829603   -1.7786472 
C     6.4371089   -1.1892136   -0.7336683 
C     7.4453054   -1.8426607   -0.0878899 
C     8.7427986   -1.6789050   -0.4882320 
C     9.0402987   -0.8590109   -1.5362550 
C     8.0252339   -0.2264576   -2.1614085 
H     5.4085411   -1.3146938   -0.4077846 
H     7.2161069   -2.4939605    0.7522387 
H     9.5409300   -2.2002939    0.0341850 
H    10.0645505   -0.7113494   -1.8612205 
N     8.1189824    0.6809460   -3.2506044 
C     6.7398123    1.0284802   -3.4390157 
H     8.9652775    1.0013305   -3.7750040 
H     6.3781927    1.7638608   -4.1579598 
