48
 energy: -9.073827312023 gnorm: 0.000742333909 xtb: 6.6.0 (2ccbbd7)
C           -1.28568122005330       -1.11383347943188       -5.04387355287536
C           -0.12330006551413       -1.35003900309607       -4.34999366218931
C           -2.34734034186066       -2.01597226114020       -4.97293752554283
C           -2.19445492453485       -3.15269340470525       -4.17968608061442
C           -1.02754975023337       -3.37876685118457       -3.48901980642289
C            0.02992057541030       -2.48266327772662       -3.56509619875581
H            0.68223148975437       -0.63876419077414       -4.38892589827604
H           -3.01297098778424       -3.84790421115480       -4.12375674744788
H           -0.92647356419633       -4.26157239586700       -2.88130206212408
H           -1.38909170035788       -0.22764121027741       -5.64416135318284
C            1.30123880625252       -2.73602100579917       -2.80926362158742
C            1.61727344451019       -1.69810992815979       -1.70710221917207
H            2.13623509649230       -2.77142562046545       -3.51677751092183
H            1.24764875401309       -3.73688696586371       -2.36690197196320
C            2.46617654398847       -0.55995554171947       -2.23041164147608
O           -3.53026573399204       -1.81316286408191       -5.65877590021159
H           -3.48248645636760       -0.97603574009342       -6.16923248608639
O            2.17399736531176       -0.02797981962788       -3.28030119283246
N            0.41735488437920       -1.16043083723949       -1.08711424215493
H            2.20249813257611       -2.18783202993846       -0.91167737667243
H           -0.05551827259955       -0.56163958452368       -1.75056763889463
H           -0.22051070171218       -1.90715316735044       -0.84058958223413
N            3.53313840165935       -0.15480043210721       -1.45674327730605
C            4.44996766582680        0.92796290849476       -1.84057967526183
H            3.61377566674702       -0.47046398806227       -0.48861823577815
C            3.83756349668749        2.26902812158982       -1.55450235489379
O            4.60934381164739        3.23423314811496       -0.97588140878328
O            2.53206040007553        2.45142839355778       -1.93477534447276
H            2.25517667152873        1.63225232259992       -2.41456945434763
C            4.88751108185105        0.80614735693829       -3.30958620154056
H            5.34695943923648        0.82752092946292       -1.21105402107716
C            6.27520153185743        1.28222564778023       -3.60977326482173
H            4.16723309497815        1.33198517778415       -3.94438513396061
H            4.81126132267429       -0.24721945000805       -3.60069289646195
C            7.02396533072308        2.33394116665838       -2.99282758617687
C            6.75799859257508        3.23499582192116       -1.95172334898964
C            7.71242826076909        4.13432521930623       -1.58137450769547
C            8.96006680391750        4.17308779914650       -2.22408142341011
C            9.25062970350605        3.31170578920074       -3.24579001636379
C            8.27744875933090        2.38349904909058       -3.63837465654485
H            5.65316086019554        3.23553521843675       -1.41598310844484
H            7.50165226862993        4.82987161534348       -0.78617183020851
H            9.69501794022407        4.89494592514295       -1.90862573495115
H           10.20100389888595        3.33220627614770       -3.74829198812734
N            8.28150399093008        1.40882908163020       -4.61802368644828
C            7.07437870201888        0.75731733338932       -4.59587556081194
H            9.06239266569926        1.22111521636611       -5.24950550138503
H            6.79995243245494       -0.04939446657335       -5.25623594032134
