48
 energy: -8.962736731107 gnorm: 0.000592883027 xtb: 6.6.0 (2ccbbd7)
C            1.26985293529202        1.33709170268872        2.12255581374505
C            0.34133386234438        1.26424954016732        1.08599555164452
C            2.60125208313472        1.74565130579913        1.88447163173476
C            2.98226586287275        2.07156686172699        0.61285988469322
C            2.06372566134741        1.98839062485862       -0.55723852902032
C            0.66583511587734        1.57332316182992       -0.19588668385937
H           -0.66467386153712        0.94869874921968        1.30344781647120
H            3.99633799073687        2.39088255636596        0.46443226946228
H            1.91699374239167        3.20947577905988       -0.96374592254742
H            0.97714618925302        1.08330074346125        3.12508298235171
C           -0.33625876818681        1.43277688661076       -1.30118474058397
C            0.32249206221871        1.22508046412151       -2.68038555009124
H           -0.98902716391986        2.31239153173815       -1.31606682905561
H           -0.98630305157251        0.57765201948694       -1.09214851359475
C            1.62800872238947        0.49706918979592       -2.54290623252206
O            3.52353355145814        1.82143312863529        2.91314205195600
H            3.09767655688494        1.57742788650347        3.76354073902701
O            1.84083540458586       -0.63337635077474       -3.29963714994500
N           -0.56087242631517        0.53383738432111       -3.61137663917913
H            0.55087261432042        2.20686939992063       -3.12928951296806
H           -0.58658079463040       -0.45117597123176       -3.38145112891723
H           -1.50450083059049        0.90136733281212       -3.56411843949559
N            2.62521188161589        1.03812415757508       -1.65146855096343
C            3.82789331305701        1.63683365644760       -2.37339967196098
H            3.03987482585675        0.28364767771567       -1.06448690976208
C            3.43135134107559        2.85469174360669       -3.18482269546149
O            2.29922176372794        3.27632720878161       -3.08837206843895
O            4.39423627313910        3.42457511530952       -3.95616381291025
H            5.25653100175416        2.96479089986465       -3.85833360638783
C            4.51421693154854        0.54730272233070       -3.20392750704791
H            4.53461953439060        1.98068215382494       -1.60730748175590
C            4.75063500257150       -0.64932449033147       -2.34676311007357
H            5.45798590938127        0.89423457306543       -3.63352987711266
H            3.86499560126917        0.27408945616528       -4.04118923166988
C            3.74938379725538       -1.56219918064796       -2.00880014820865
C            2.38718994829416       -1.78171396753205       -2.60911334216205
C            1.44177004295467       -2.39030781227887       -1.60874919672485
C            1.86990698079185       -2.98171786204550       -0.46784157843256
C            3.22076080199024       -2.95470037800197       -0.07142863828536
C            4.13391476306889       -2.20752157684298       -0.81872194428144
H            2.52227692509136       -2.51978065105124       -3.41694853759564
H            0.39219931869974       -2.36913629887778       -1.84258044401893
H            1.15291167657305       -3.45948499003182        0.17951919000057
H            3.53496933712416       -3.40483525004991        0.85244199545091
N            5.40404682377609       -1.74103501906381       -0.49036746551525
C            5.76615271233083       -0.79282923624927       -1.39976744469830
H            5.89296883448690       -1.97708051595713        0.37494082136136
H            6.64575815534888       -0.17317015002356       -1.32616498448372
