48
Energy =
C     1.6216164    1.9646039   -5.6745722 
C     1.1202141    2.1092425   -4.4228756 
C     0.9442689    1.2362913   -6.6014063 
C    -0.2306525    0.6550713   -6.2668037 
C    -0.7366330    0.7952865   -5.0150423 
C    -0.0661538    1.5288047   -4.0854467 
H     1.6831165    2.6831071   -3.6899581 
H    -0.7576388    0.0709155   -7.0131636 
H    -1.6755298    0.3105168   -4.7614161 
H     2.5690855    2.4288655   -5.9281085 
C    -0.6068896    1.6505590   -2.6752647 
C    -0.2469762    0.4180749   -1.8112801 
H    -1.7124535    1.7644167   -2.7113694 
H    -0.2151961    2.5749721   -2.1952637 
C     1.2522492    0.1523859   -1.7787077 
O     1.4327282    1.0682130   -7.9012981 
H     2.3170770    1.5351166   -8.0713598 
O     1.6989367   -0.9415611   -2.5026080 
N    -0.7985421    0.5802034   -0.4537768 
H    -0.6948527   -0.4922172   -2.2788655 
H    -0.5595975    1.5237929   -0.0675240 
H    -1.8439978    0.5274148   -0.4982772 
N     2.1352394    1.2356479   -1.4047197 
C     3.6211173    1.1096040   -1.3882116 
H     1.8245732    1.5263123   -0.4502104 
C     4.1943725    2.4917738   -1.7068785 
O     4.4152981    2.8599154   -3.0304453 
O     4.4547086    3.4292335   -0.7060620 
H     4.1723776    3.1080486    0.2069839 
C     4.2512622    0.0738787   -2.3659878 
H     3.9796465    0.9177952   -0.3728976 
C     4.2798404   -1.4299712   -2.0543954 
H     5.3155868    0.3497365   -2.5405835 
H     3.7450063    0.2215019   -3.3484743 
C     4.2460010   -2.1470599   -0.8960903 
C     4.1169433   -1.7757857    0.4116862 
C     4.1186823   -2.7382278    1.3777643 
C     4.2491967   -4.0527168    1.0449880 
C     4.3786612   -4.4160233   -0.2570106 
C     4.3729119   -3.4499981   -1.1986524 
H     4.0036337   -0.7631570    0.7358580 
H     4.0112652   -2.4562752    2.4227321 
H     4.2476008   -4.8130342    1.8221830 
H     4.4835736   -5.4582025   -0.5396010 
N     4.5084700   -3.6518870   -2.5923080 
C     4.4412054   -2.3080347   -3.0664348 
H     4.6376223   -4.5409777   -3.1277304 
H     4.5062753   -2.0368855   -4.1181184 
