48
 energy: -9.176307105870 gnorm: 0.000867469127 xtb: 6.6.0 (2ccbbd7)
C           -1.79084543822424        5.56180671157821       -2.52834237832568
C           -1.68804145798322        4.19426759958861       -2.42635889496078
C           -0.69590641626888        6.38014782109863       -2.24978106981845
C            0.49824374956176        5.77213866363116       -1.86552484593470
C            0.59058315482925        4.40509940509336       -1.76570752484629
C           -0.49740828073771        3.59059919603541       -2.04395691507823
H           -2.54077308794590        3.57604838565305       -2.64865469837186
H            1.34402844315389        6.39871027483188       -1.64310592497345
H            1.51264887551584        3.96389382731079       -1.43006583674580
H           -2.71939312945878        6.01546502570800       -2.82532780515725
C           -0.40034598021967        2.09457482221730       -1.95977854699916
C            0.00089454826397        1.55564237481119       -0.57328347099918
H            0.31866590387572        1.74521297666426       -2.70771094065810
H           -1.36371073844502        1.66192646977876       -2.24896245751596
C            1.44924699696369        1.80021928319526       -0.31589775622903
O           -0.76788621783230        7.75723777462963       -2.33958044509747
H           -1.66779175867736        8.03019436940735       -2.62139412445566
O            1.80777645692946        2.94057067876824        0.41216126994009
N           -0.79240867797917        2.14658715151807        0.49735564767922
H           -0.16224557401298        0.46609613673919       -0.54085376305494
H           -0.40236574191179        3.06134921192244        0.70417198302920
H           -1.75529323213422        2.27161887157436        0.20885669873076
N            2.42147258360221        0.97011994439856       -0.84527091070766
C            3.77694978206084        1.44961143813130       -1.12414222636673
H            2.14519137906532        0.24224030242057       -1.49731689769605
C            3.78573350159944        2.95847078418691       -1.21602910205343
O            4.30447249618387        3.50956432624628       -2.18333118551632
O            3.16610481636436        3.64834553793558       -0.15661000417405
H            2.92195425824977        2.94268742426646        0.72287254182305
C            4.34750459022660        0.81630571383956       -2.39831565212333
H            4.40047932651390        1.15499043858552       -0.26808907942745
C            4.30143476334578       -0.67363642200070       -2.37797752704037
H            5.37564192660524        1.15905231505647       -2.55391639330241
H            3.78135440954647        1.18982711378265       -3.25656773323309
C            3.23515995767132       -1.49172117017865       -2.86055594891549
C            2.03271762053884       -1.20215094335872       -3.53060915631352
C            1.18328412259288       -2.23225408930992       -3.82618204057141
C            1.49500310642506       -3.55598743515837       -3.47480402558303
C            2.65968633390155       -3.86114178511166       -2.82500498533013
C            3.54323664317217       -2.82080158026854       -2.51102604138344
H            1.80447832729722       -0.19109660497829       -3.81973613365596
H            0.26007489280625       -2.02822876291935       -4.34281757060153
H            0.80355555719175       -4.34403028949110       -3.72355017112687
H            2.90486718404414       -4.87120263051696       -2.54964190402317
N            4.75812603463121       -2.80626202774976       -1.84799821740305
C            5.19987974084025       -1.50880871158513       -1.76113837407594
H            5.21312504986840       -3.62852473510900       -1.44711824638231
H            6.10176096658407       -1.19665523265469       -1.25999574556947
