48
 energy: -9.288479385598 gnorm: 0.000692795003 xtb: 6.6.0 (2ccbbd7)
C            3.95832479104617        5.42236529742320        3.62556884888829
C            3.19210683285323        4.39310065435698        3.13183243512104
C            5.09549413008433        5.85328070124991        2.94123332954417
C            5.42720491345679        5.21737015565727        1.74527050474663
C            4.65672798494171        4.19003399340578        1.25763116983315
C            3.53171919569138        3.75815447560903        1.94567695943093
H            2.31704446714241        4.06857252337231        3.66845096082187
H            6.29887372050211        5.55385891347451        1.21250463483242
H            4.91891015364094        3.71727515273632        0.32438728143375
H            3.68790324614434        5.90575235393708        4.54723455857229
C            2.68984759261835        2.65003502317765        1.39313322240960
C            1.94040869642034        3.06127402149286        0.12259418939441
H            1.96367769107637        2.31538459131749        2.13945125125242
H            3.32666077584875        1.78389188318105        1.19377690847905
C            1.32256229889747        1.86577721863876       -0.56895570326181
O            5.88963948840349        6.88104502649509        3.41282824127671
H            5.52885571030423        7.22380457256536        4.25888721103907
O            0.18989152028611        1.56359118899711       -0.25201663687318
N            0.88999583788861        4.02905875184752        0.40043853325125
H            2.64030805340498        3.55269506621825       -0.56801645145109
H            0.07537020458089        3.52064255561141        0.73486519097286
H            1.18246335076150        4.68588555166539        1.11376371972415
N            2.02698513338872        1.14373645486156       -1.51675608809982
C            3.49370005032343        1.10496039399147       -1.60508329297053
H            1.58244788996992        0.31046435236585       -1.89260267313046
C            4.06519747748043        2.47068802826095       -1.90657208745662
O            5.16256695825643        2.73849181843596       -1.46543404737665
O            3.30077404938152        3.29498357091157       -2.66321395837348
H            2.45919975681910        2.84669097941278       -2.91029991166679
C            3.98332803912738        0.07785092095586       -2.62925062940320
H            3.86316711923850        0.81168731424759       -0.61259681612869
C            3.52777954161182        0.36086492975699       -4.02050247441445
H            3.64563224999920       -0.92231605541757       -2.33915321343908
H            5.07785485767310        0.04537766152725       -2.61605570661993
C            4.09989240481388        1.30586498298764       -4.92417285313784
C            5.16772210086443        2.21383634952714       -4.81135164483847
C            5.46450354839300        3.01382488003764       -5.87928161180263
C            4.72372923699808        2.94039861013975       -7.07021693759247
C            3.67342790966119        2.07319340543215       -7.19897384823434
C            3.35115352847437        1.24676120863644       -6.11515169837591
H            5.69228881260617        2.30855486504806       -3.87623896590549
H            6.26943862970988        3.72581259783100       -5.80131378116240
H            4.98198720709791        3.58773575309917       -7.89190087603423
H            3.09382355833427        2.01889623749257       -8.10302501341863
N            2.35337723381869        0.30592169295469       -5.93125986340780
C            2.46301438269049       -0.21684811336928       -4.66657596827461
H            1.64643985815157        0.06443902893964       -6.62812615356588
H            1.81031602401396       -0.96725159449438       -4.25058599006415
