48
Energy =
C    -2.2188897   -1.2974736   -4.9363804 
C    -1.8876532   -0.0237622   -4.6097023 
C    -1.2560322   -2.2451150   -5.0495284 
C     0.0331213   -1.9217429   -4.8391367 
C     0.3768773   -0.6646633   -4.5088559 
C    -0.5842158    0.3130836   -4.3758391 
H    -2.6806465    0.7222003   -4.5392070 
H     0.8013247   -2.6736394   -4.9325029 
H     1.4774890   -0.4472334   -4.3157804 
H    -3.2624216   -1.5570749   -5.1126130 
C    -0.2699998    1.7879655   -4.0752368 
C     0.9440668    2.1153279   -3.1500852 
H    -1.1656015    2.2367860   -3.5786807 
H    -0.1790049    2.3349943   -5.0402189 
C     1.0096508    1.2384285   -1.9104826 
O    -1.5631778   -3.5615531   -5.3810765 
H    -2.5537466   -3.7479425   -5.5318188 
O    -0.0872601    1.2246392   -1.0669652 
N     2.2134890    2.1820401   -3.9100417 
H     0.7614935    3.1354138   -2.7194827 
H     2.3958489    1.2601589   -4.3927493 
H     2.0523408    2.7920282   -4.7467727 
N     1.9545455    0.1678616   -1.7824198 
C     3.4045424    0.4351014   -1.9099763 
H     1.5555763   -0.7913721   -1.8828822 
C     3.7680388    1.9122251   -2.1515518 
O     3.2359821    2.6691522   -3.2316839 
O     4.7357363    2.5386951   -1.3706740 
H     5.0862196    1.9776498   -0.6071509 
C     4.0330284   -0.4832273   -3.0013554 
H     3.8397380    0.1745098   -0.9177187 
C     5.1867161   -1.2951003   -2.4529051 
H     4.4042127    0.1104249   -3.8650698 
H     3.2734277   -1.1719971   -3.4468346 
C     6.4566072   -0.8826873   -2.3032124 
C     7.0327992    0.3051288   -2.6249087 
C     8.3576809    0.4766613   -2.3505616 
C     9.0783294   -0.5272839   -1.7654578 
C     8.4785427   -1.7096344   -1.4492428 
C     7.1674418   -1.8563534   -1.7317090 
H     6.4698704    1.1115852   -3.0864380 
H     8.8451958    1.4186872   -2.5956329 
H    10.1345397   -0.3809956   -1.5484240 
H     9.0366467   -2.5136326   -0.9795884 
N     6.3536428   -2.9898580   -1.4679188 
C     5.0848828   -2.5419369   -1.9553342 
H     6.6214493   -3.9034982   -1.0305192 
H     4.1725379   -3.1314645   -1.8997391 
