48
Energy =
C    -0.1487964    4.1723621    0.1624733 
C    -0.0283388    2.8230007    0.0941018 
C     0.9503078    4.9473751    0.3629944 
C     2.1649605    4.3642073    0.4854029 
C     2.2887725    3.0144688    0.4264246 
C     1.1903881    2.2332101    0.2393581 
H    -0.9138122    2.2153459   -0.0698416 
H     3.0391304    4.9889945    0.6309368 
H     3.2741337    2.5676835    0.5316537 
H    -1.1254407    4.6301435    0.0536400 
C     1.3145728    0.7247574    0.1790234 
C     1.5105471    0.2142521   -1.2732861 
H     0.4028120    0.2722332    0.6251167 
H     2.1554886    0.3794792    0.8217014 
C     2.9558706    0.2795840   -1.7565277 
O     0.8575233    6.3425257    0.4377909 
H    -0.0897013    6.6977090    0.3738423 
O     3.8710580    0.6669396   -1.0135149 
N     0.9976035   -1.1612561   -1.3882552 
H     0.9391334    0.8675027   -1.9710176 
H     1.4816129   -1.7703318   -0.6853018 
H    -0.0255379   -1.1782636   -1.1673782 
N     3.2721031   -0.0549857   -3.1186240 
C     4.3844008    0.7229330   -3.6925382 
H     2.7055572   -0.7642274   -3.6353504 
C     5.1507501    1.4459289   -2.5842981 
O     6.1624681    2.3488655   -2.8987620 
O     4.8972045    1.1951603   -1.3967972 
H     4.7709380    0.2398585   -1.1305668 
C     3.8526588    1.6737687   -4.7892450 
H     5.1130263    0.0220289   -4.1532146 
C     2.6650692    2.5012812   -4.3372049 
H     3.5474231    1.0614752   -5.6657617 
H     4.6696735    2.3370785   -5.1494980 
C     2.6825098    3.7125347   -3.7558007 
C     3.7290924    4.5194912   -3.4443344 
C     3.4697119    5.7236182   -2.8590588 
C     2.1821168    6.1054661   -2.6074591 
C     1.1457745    5.2843433   -2.9362853 
C     1.4280386    4.0928169   -3.5021642 
H     4.7525064    4.2281457   -3.6512348 
H     4.2918119    6.3821415   -2.5887335 
H     1.9832838    7.0626088   -2.1305027 
H     0.1195036    5.5732947   -2.7394365 
N     0.4990725    3.1031194   -3.9205633 
C     1.3836519    2.1075869   -4.4503017 
H    -0.5443773    3.1035087   -3.8542233 
H     1.0605248    1.1569063   -4.8679966 
