48
Energy =
C     1.1002564    3.6008487   -5.5337014 
C     0.7292633    3.3409781   -4.2534692 
C     0.5312555    2.9228112   -6.5563305 
C    -0.4136762    1.9883158   -6.3057011 
C    -0.7867374    1.7197747   -5.0294206 
C    -0.2250618    2.4034181   -3.9932840 
H     1.2025328    3.8875471   -3.4390028 
H    -0.8674225    1.4609418   -7.1366146 
H    -1.5424986    0.9614732   -4.8452828 
H     1.8564659    4.3504363   -5.7436199 
C    -0.6519471    2.1075303   -2.5703101 
C     0.2959424    1.0909472   -1.8820321 
H    -1.6916861    1.7146130   -2.5764905 
H    -0.6973331    3.0503244   -1.9801868 
C     1.5697627    1.7263802   -1.3377657 
O     0.9148726    3.1885023   -7.8675222 
H     1.6654606    2.5767001   -8.1605235 
O     1.6912443    2.9594937   -1.2624190 
N    -0.4176671    0.3901390   -0.8034864 
H     0.6247454    0.3393315   -2.6343637 
H    -0.7920372    1.0943260   -0.1233618 
H    -1.2321742   -0.1326557   -1.2013895 
N     2.6738966    0.8976976   -0.9370308 
C     4.0005315    1.5158860   -1.1043160 
H     2.5151779   -0.0813036   -0.6101883 
C     3.8548017    3.0007235   -1.4335704 
O     4.9499083    3.7374505   -1.8766830 
O     2.7521378    3.5524511   -1.3023541 
H     2.2141389    3.3288222   -0.4897192 
C     4.8101747    0.7398776   -2.1647904 
H     4.5412518    1.4701865   -0.1351587 
C     4.1893479    0.8152131   -3.5452543 
H     4.9161068   -0.3188951   -1.8477044 
H     5.8422863    1.1552501   -2.2088050 
C     3.3235322   -0.0519378   -4.0942294 
C     2.7993602   -1.1995767   -3.5913115 
C     1.9190080   -1.9023258   -4.3600312 
C     1.5833075   -1.4569087   -5.6082035 
C     2.1277711   -0.3060491   -6.0954314 
C     2.9926844    0.3736482   -5.3147436 
H     3.0595075   -1.5538978   -2.5991941 
H     1.4815470   -2.8211804   -3.9767377 
H     0.8807549   -2.0235082   -6.2143313 
H     1.8744268    0.0631862   -7.0825961 
N     3.6564146    1.5889707   -5.6281878 
C     4.4052659    1.8094244   -4.4255530 
H     3.6291416    2.1618764   -6.5029223 
H     5.0384259    2.6772320   -4.2425971 
