48
Energy =
C    -2.1975735    2.1209441   -2.6208503 
C    -2.0742010    1.1089001   -1.7259047 
C    -1.5477648    3.2968153   -2.4176876 
C    -0.7902496    3.4574434   -1.3097675 
C    -0.6583943    2.4463578   -0.4147062 
C    -1.2785803    1.2525487   -0.6272531 
H    -2.6231816    0.1902402   -1.9021698 
H    -0.2800835    4.4013686   -1.1511699 
H    -0.0390578    2.6007168    0.4665292 
H    -2.8200908    1.9862939   -3.4985301 
C    -1.1477702    0.1416929    0.3996007 
C    -0.7711437   -1.2390685   -0.1946018 
H    -2.1205501    0.0599420    0.9309434 
H    -0.3892917    0.4104698    1.1704116 
C     0.5808712   -1.2409322   -0.8991869 
O    -1.6406803    4.3520536   -3.3315107 
H    -2.2598769    4.1655933   -4.1125293 
O     0.6109670   -1.5250365   -2.2611232 
N    -0.8315635   -2.2611428    0.8658923 
H    -1.5031404   -1.5232733   -0.9830033 
H    -0.2780904   -1.9472578    1.6989781 
H    -1.8226792   -2.3714374    1.1850539 
N     1.7915700   -1.4050530   -0.1469098 
C     2.9035759   -0.4479293   -0.3001818 
H     1.8366501   -2.1759417    0.5563669 
C     2.5959589    0.9453585    0.2233153 
O     2.6039753    1.1815574    1.5924398 
O     2.3356863    2.0059773   -0.6346661 
H     2.0095011    1.5946962   -1.6582839 
C     3.5437753   -0.5213859   -1.7130819 
H     3.7024429   -0.7957552    0.3931167 
C     2.9321912    0.3102801   -2.8432024 
H     3.5340272   -1.5893264   -2.0287848 
H     4.6090483   -0.2158664   -1.6157098 
C     3.4207646    0.2986905   -4.0903825 
C     4.5317528   -0.3274622   -4.5681549 
C     4.8327419   -0.2055376   -5.8918018 
C     4.0259157    0.5267468   -6.7135814 
C     2.9157444    1.1365688   -6.2135113 
C     2.6423722    1.0037208   -4.8962840 
H     5.1749701   -0.9157700   -3.9205576 
H     5.7158562   -0.6958384   -6.2954619 
H     4.2660392    0.6191284   -7.7704031 
H     2.2585938    1.7141590   -6.8558332 
N     1.5198169    1.5453197   -4.2231924 
C     1.6451165    1.1483027   -2.8037790 
H     0.7779513    2.1464958   -4.6595163 
H     1.3700900    2.1758860   -2.4960673 
