48
Energy =
C    -1.8625686    3.4823588    2.8785931 
C    -0.9723384    2.8839621    2.0471558 
C    -2.6058861    4.5341647    2.4418731 
C    -2.4532719    4.9794334    1.1740314 
C    -1.5649916    4.3847019    0.3381994 
C    -0.8153560    3.3343739    0.7717790 
H    -0.3902764    2.0402578    2.4085237 
H    -3.0527450    5.8177328    0.8367061 
H    -1.4590156    4.7552242   -0.6782968 
H    -1.9797963    3.1163397    3.8927563 
C     0.1626142    2.6606903   -0.1654139 
C    -0.5403024    1.6907659   -1.1431379 
H     0.9457689    2.1183992    0.4093781 
H     0.6968406    3.4524561   -0.7391777 
C     0.4195695    1.1885419   -2.2068175 
O    -3.5325883    5.1725103    3.2729227 
H    -3.5856940    4.7812688    4.2068829 
O     0.2070310    1.5230405   -3.5399340 
N    -1.1535226    0.5660824   -0.4149101 
H    -1.3355863    2.2437786   -1.6990059 
H    -0.4499682    0.1162698    0.2179968 
H    -1.9413616    0.9142688    0.1811115 
N     1.4278852    0.2159369   -1.8886492 
C     2.8293240    0.7309634   -1.8323372 
H     1.3042345   -0.5407185   -2.5978201 
C     3.0249657    2.2217726   -2.1529207 
O     3.3066814    3.1004324   -1.1130596 
O     2.9546068    2.7286187   -3.4492799 
H     2.6315054    2.0326387   -4.1056368 
C     3.7863870   -0.1586984   -2.6707943 
H     3.1546533    0.6480993   -0.7705872 
C     3.8825933   -1.5657405   -2.1166933 
H     4.8106532    0.2805500   -2.6648534 
H     3.4664715   -0.1732034   -3.7336112 
C     3.3271533   -2.6832785   -2.6179122 
C     2.5679870   -2.8624687   -3.7312600 
C     2.1201099   -4.1189534   -4.0161542 
C     2.4342781   -5.1669386   -3.1964457 
C     3.1990581   -4.9653705   -2.0865403 
C     3.6301184   -3.7136328   -1.8250365 
H     2.3151344   -2.0368601   -4.3883995 
H     1.5094873   -4.2883721   -4.9001266 
H     2.0729267   -6.1653336   -3.4303157 
H     3.4575297   -5.7859798   -1.4258817 
N     4.4301446   -3.2954029   -0.7287224 
C     4.5458680   -1.8919490   -0.9929139 
H     4.8257441   -3.8615343    0.0567140 
H     5.0932334   -1.1926673   -0.3648854 
