48
 energy: -9.287522139547 gnorm: 0.000977051569 xtb: 6.6.0 (2ccbbd7)
C            5.70961002827180       -2.64723381920048        2.75456500759638
C            5.01882023220185       -1.65062027935670        2.10961793760581
C            5.06385661161517       -3.47405778506866        3.67464623153784
C            3.70665574330453       -3.26139159588165        3.91785050930758
C            3.02277583493000       -2.26178826101130        3.26799929750833
C            3.67143842993672       -1.43838989124957        2.36086927421407
H            5.51209014531077       -1.02151981452159        1.38643845855087
H            3.21026241901543       -3.89996593756456        4.62638149308546
H            1.97416142546668       -2.11034455084936        3.45825610302881
H            6.75433191050463       -2.80125338812952        2.55228050682510
C            2.93421676278534       -0.37412100645289        1.61339326381880
C            2.26360136202183       -0.88436662695086        0.33005918033178
H            3.63496407185174        0.42523781536881        1.36124983928304
H            2.18912910381983        0.09581643648857        2.26414014951811
C            1.76766385776451        0.27204107986790       -0.51125919180793
O            5.72645303839465       -4.48854619553579        4.33894184487559
H            6.67076912087456       -4.50417805018196        4.07191763544797
O            0.61806324550199        0.63546684173928       -0.35125952258793
N            3.11247565570083       -1.77696063685290       -0.44933397561580
H            1.37103850918748       -1.46126661733695        0.62723691369327
H            3.42092263029818       -2.56231091151468        0.10892500078896
H            2.60064705736344       -2.14329159096963       -1.24167258661908
N            2.59245707040296        0.90549000071309       -1.41596801118627
C            4.02020909263034        0.62647567894332       -1.62822806619439
H            2.22122804357196        1.69153818096955       -1.94602388525313
C            4.82993199330092        1.04960535098804       -0.41988333844141
O            5.76361678034375        0.35813926351921       -0.07287800960826
O            4.43526382560800        2.19052378225377        0.19450609940307
H            3.62943335553756        2.55501411770051       -0.23933556456676
C            4.52409191701201        1.29544826452295       -2.91162394045404
H            4.13321874868977       -0.45911336855764       -1.73927507181573
C            5.83032288058715        0.77839553436327       -3.41982490045088
H            4.60209336554609        2.37362276958039       -2.74545797839046
H            3.76975177009302        1.16605391262832       -3.69392406603898
C            6.25208929141820        0.77469452036351       -4.78322558743053
C            5.62691118202720        1.17152993613504       -5.97799996313089
C            6.31455606992256        1.04014304640383       -7.15267977291870
C            7.61945059896177        0.52134102282933       -7.17794498256398
C            8.24830469289473        0.13009318220826       -6.02783344084513
C            7.56160918654051        0.25555798150113       -4.81374776699679
H            4.62879852895953        1.57133352090873       -5.95523687532007
H            5.84927261987064        1.34064862229324       -8.07679697567632
H            8.13299275656205        0.43224469374152       -8.12086794706413
H            9.24789355579363       -0.26603829682861       -6.03714875316051
N            7.92277137013800       -0.03908228895683       -3.51132448182498
C            6.87920609389838        0.28655839693021       -2.68374527867900
H            8.82815828648649       -0.41611675371882       -3.22493078293280
H            6.88503136040911        0.16982158703907       -1.61327398881367
