48
Energy =
C    -3.6399365    3.2626407   -3.0907255 
C    -2.3503967    2.9752287   -2.7802354 
C    -4.3175099    2.4895745   -3.9811550 
C    -3.6987412    1.4326398   -4.5547498 
C    -2.4095912    1.1405397   -4.2479996 
C    -1.7258781    1.9134545   -3.3603293 
H    -1.8235736    3.5993123   -2.0629743 
H    -4.2496969    0.8228591   -5.2621189 
H    -1.9302834    0.2852844   -4.7174753 
H    -4.1280581    4.1112668   -2.6240224 
C    -0.2945812    1.5772507   -3.0054129 
C    -0.2023054    0.4019907   -2.0036435 
H     0.2299472    2.4686259   -2.5932160 
H     0.2473594    1.3193603   -3.9431114 
C     1.2359459   -0.0394030   -1.8140058 
O    -5.6475703    2.7576006   -4.3219864 
H    -6.0369777    3.5679597   -3.8530395 
O     1.6124663   -1.3296437   -2.1723200 
N    -0.8141470    0.7666591   -0.7129078 
H    -0.7306205   -0.4870019   -2.4244684 
H    -0.4397789    1.6878125   -0.3828462 
H    -1.8494229    0.8721258   -0.8315663 
N     2.1532247    0.7835897   -1.0797804 
C     3.4398028    1.0320368   -1.7766921 
H     2.3057234    0.2920415   -0.1704815 
C     3.2636970    1.7261424   -3.1318388 
O     3.5304181    3.0856516   -3.2296090 
O     2.8236274    1.0572961   -4.2773775 
H     2.6036824    0.0889926   -4.0996771 
C     4.3343846   -0.2395132   -1.8289323 
H     3.9808179    1.7857051   -1.1586247 
C     5.7908512    0.1136614   -2.0456099 
H     3.9927057   -0.9542367   -2.6066069 
H     4.2449521   -0.8022187   -0.8739131 
C     6.4505574    0.1787499   -3.2149326 
C     6.0218929   -0.0798326   -4.4773827 
C     6.9039444    0.0722942   -5.5064508 
C     8.1877548    0.4742790   -5.2626298 
C     8.5973559    0.7272551   -3.9875152 
C     7.7061063    0.5697442   -2.9863431 
H     5.0050384   -0.3966231   -4.6801981 
H     6.5818977   -0.1227172   -6.5268270 
H     8.8833621    0.5964477   -6.0891947 
H     9.6111090    1.0506452   -3.7770638 
N     7.9267533    0.7880100   -1.6004139 
C     6.6357289    0.4761893   -1.0636356 
H     8.7986705    1.0913621   -1.1089796 
H     6.3779712    0.5440799   -0.0088463 
