48
Energy =
C    -1.8761971    5.1225242   -6.3510681 
C    -0.9721329    4.1664550   -6.0203043 
C    -2.8594474    5.4652826   -5.4765735 
C    -2.9302399    4.8483839   -4.2750818 
C    -2.0283850    3.8916180   -3.9384478 
C    -1.0452107    3.5416634   -4.8124091 
H    -0.1886583    3.9082929   -6.7284041 
H    -3.7184660    5.1324136   -3.5863097 
H    -2.1005577    3.4094758   -2.9666583 
H    -1.8091179    5.6130186   -7.3161148 
C    -0.0286843    2.4894435   -4.4300360 
C     1.0785004    3.0621732   -3.5145747 
H     0.4274322    2.0376837   -5.3393656 
H    -0.5536669    1.6569285   -3.9076639 
C     1.9162254    1.9522255   -2.9233558 
O    -3.8064148    6.4470324   -5.7855856 
H    -3.6870209    6.8597318   -6.7043569 
O     1.9113660    1.7427170   -1.5506739 
N     1.9245199    4.0208976   -4.2460673 
H     0.6151981    3.5695596   -2.6334674 
H     2.2437016    3.5991123   -5.1511539 
H     1.3627419    4.8715146   -4.4861974 
N     2.7821293    1.1617534   -3.7434435 
C     4.2272268    1.3764826   -3.5729857 
H     2.3834738    0.4828890   -4.4304097 
C     4.8398645    1.9275046   -4.8581318 
O     5.0924797    1.0757478   -5.9274099 
O     5.0962003    3.2892141   -5.0225912 
H     4.7189389    3.8340465   -4.2606319 
C     4.8651382    0.0446229   -3.1266854 
H     4.4134504    2.1283607   -2.7703329 
C     6.2816046    0.2376635   -2.6290134 
H     4.8233991   -0.7022863   -3.9487621 
H     4.2573205   -0.3783201   -2.2945736 
C     7.4238801    0.0042285   -3.2971329 
C     7.6226172   -0.4829922   -4.5493173 
C     8.9035577   -0.6219312   -4.9959710 
C     9.9563550   -0.2785036   -4.1942585 
C     9.7345064    0.2065462   -2.9400075 
C     8.4582367    0.3357539   -2.5206051 
H     6.7927599   -0.7575026   -5.1925894 
H     9.0865841   -1.0050405   -5.9971280 
H    10.9741144   -0.3906809   -4.5595890 
H    10.5585509    0.4851436   -2.2919551 
N     8.0159004    0.8213586   -1.2609161 
C     6.5942521    0.7270472   -1.4156526 
H     8.5765684    1.1566337   -0.4440077 
H     5.8709933    1.0209278   -0.6572077 
