48
Energy =
C    -4.5703277    2.2975718   -2.1377423 
C    -3.3099218    1.9311268   -2.4822091 
C    -4.8015329    3.5222172   -1.5935180 
C    -3.7679260    4.3720098   -1.3970829 
C    -2.5053798    4.0110085   -1.7399035 
C    -2.2695939    2.7876729   -2.2888532 
H    -3.1397200    0.9479400   -2.9135262 
H    -3.9651540    5.3446525   -0.9598817 
H    -1.6880741    4.7065616   -1.5679033 
H    -5.3922475    1.6081929   -2.2975328 
C    -0.8630781    2.3705578   -2.6574813 
C    -0.2309011    1.4314385   -1.6003789 
H    -0.2116000    3.2613808   -2.8044168 
H    -0.8942006    1.8562304   -3.6447737 
C     1.1068350    0.8672702   -2.0602546 
O    -6.0880907    3.9306861   -1.2266124 
H    -6.8065186    3.2380033   -1.4065342 
O     1.5864837    1.1235459   -3.3428390 
N    -0.0828688    2.1289687   -0.3128704 
H    -0.8923985    0.5464104   -1.4576778 
H     0.4231346    3.0386069   -0.4417715 
H    -1.0247961    2.3434730    0.0904888 
N     1.8454073   -0.0143362   -1.2037860 
C     3.1557881    0.4240361   -0.6786913 
H     1.4294796   -0.9364168   -0.9440265 
C     3.1529546    1.8579812   -0.1350626 
O     3.1967674    2.0565402    1.2405198 
O     3.1287724    2.9832246   -0.9647603 
H     3.1221730    2.7309047   -1.9417313 
C     4.2629184    0.1724700   -1.7268717 
H     3.3894782   -0.2067721    0.2086537 
C     4.3757199   -1.2974363   -2.0618498 
H     5.2424031    0.5410218   -1.3499999 
H     4.0532873    0.7383275   -2.6597463 
C     5.0363538   -2.2349904   -1.3654541 
C     5.7807608   -2.1175998   -0.2359397 
C     6.3484527   -3.2431782    0.2854151 
C     6.1634205   -4.4549059   -0.3215971 
C     5.4085051   -4.5484939   -1.4532663 
C     4.8592126   -3.4206194   -1.9506662 
H     5.9249957   -1.1566139    0.2486798 
H     6.9498616   -3.1767758    1.1890771 
H     6.6178864   -5.3478188    0.1004954 
H     5.2480181   -5.5018902   -1.9450720 
N     4.0338033   -3.3017320   -3.1008584 
C     3.7579328   -1.8942358   -3.0956432 
H     3.7115731   -4.0394826   -3.7680779 
H     3.1160009   -1.3859443   -3.8129829 
