48
Energy =
C    -4.0855418    0.2969409   -1.6982693 
C    -2.8283747   -0.0194675   -2.0991035 
C    -4.5168593   -0.0566521   -0.4580891 
C    -3.6852301   -0.7244959    0.3735269 
C    -2.4266563   -1.0430413   -0.0218547 
C    -1.9916918   -0.6956299   -1.2638672 
H    -2.4966023    0.2751971   -3.0912985 
H    -4.0405824   -0.9995321    1.3605449 
H    -1.7717149   -1.5777997    0.6611896 
H    -4.7438188    0.8348636   -2.3717197 
C    -0.5822574   -1.0337526   -1.6966956 
C     0.4533964   -0.0334922   -1.1295942 
H    -0.5145957   -1.0657896   -2.8075148 
H    -0.3386349   -2.0621852   -1.3452294 
C     1.8720635   -0.5245474   -1.3479413 
O    -5.8059507    0.2547366   -0.0135779 
H    -6.3671616    0.7537789   -0.6951012 
O     2.6949174   -0.7682075   -0.2533299 
N     0.2677421    1.3043177   -1.7162384 
H     0.3301365    0.0330623   -0.0223823 
H     0.2038151    1.2374001   -2.7610227 
H    -0.6355291    1.7127135   -1.3786903 
N     2.3850611   -0.7274097   -2.6727675 
C     3.4722093    0.1624811   -3.1154052 
H     1.9878219   -1.4828762   -3.2753988 
C     2.9799191    1.1074684   -4.2078082 
O     2.9687042    0.6882277   -5.5344948 
O     2.4951163    2.3821348   -3.9071197 
H     2.4557654    2.5496655   -2.9107684 
C     4.6596430   -0.6979751   -3.5961052 
H     3.8316642    0.8032981   -2.2761881 
C     5.2499308   -1.5082011   -2.4633848 
H     5.4521833   -0.0523792   -4.0348840 
H     4.3233434   -1.3829267   -4.4074982 
C     6.1013793   -1.0728514   -1.5220211 
C     6.6638695    0.1519398   -1.3562680 
C     7.5039838    0.3410081   -0.2982931 
C     7.7648902   -0.6844534    0.5683997 
C     7.1870834   -1.9053995    0.3821521 
C     6.3611793   -2.0679196   -0.6726735 
H     6.4550446    0.9670465   -2.0421041 
H     7.9665683    1.3124408   -0.1417799 
H     8.4331118   -0.5255461    1.4108955 
H     7.3794028   -2.7283212    1.0618576 
N     5.6574276   -3.2461660   -1.0392475 
C     4.9548492   -2.7941480   -2.2040452 
H     5.6585089   -4.1884771   -0.5871160 
H     4.2611527   -3.4037227   -2.7769504 
