48
Energy =
C    -3.2766178    0.8422643    0.7213259 
C    -2.1084597    0.1752795    0.9020392 
C    -3.2760244    2.0864168    0.1716087 
C    -2.1045231    2.6543038   -0.1950547 
C    -0.9338073    1.9924570   -0.0162229 
C    -0.9287408    0.7482330    0.5368183 
H    -2.1253216   -0.8202587    1.3376080 
H    -2.1153819    3.6451591   -0.6356506 
H    -0.0022132    2.4649299   -0.3214530 
H    -4.2110988    0.3774955    1.0161974 
C     0.3768490    0.0070745    0.7212624 
C     0.9170165   -0.5578355   -0.6158419 
H     0.2683301   -0.8168774    1.4613247 
H     1.1107594    0.7196853    1.1588010 
C     2.3748754   -0.9909728   -0.4867737 
O    -4.4626366    2.8002224   -0.0274089 
H    -5.2956775    2.3046754    0.2699884 
O     2.7686872   -2.2932834   -0.7755297 
N     0.0643711   -1.6618777   -1.0884770 
H     0.9104686    0.2439558   -1.3876555 
H     0.0503948   -2.4315543   -0.3779353 
H    -0.9169789   -1.3276838   -1.2290430 
N     3.3785607   -0.0682128   -0.0364652 
C     4.0599134    0.7699108   -1.0377905 
H     3.5784079    0.0005594    0.9862635 
C     3.1288197    1.8507345   -1.5836936 
O     2.5644491    1.7160736   -2.8475266 
O     2.7572761    2.9459494   -0.8046106 
H     3.1826363    2.9157022    0.1108335 
C     4.6825907   -0.1255820   -2.1351357 
H     4.8891046    1.3060351   -0.5241460 
C     5.6812360    0.6337364   -2.9805478 
H     3.8825800   -0.5630836   -2.7774579 
H     5.1829252   -0.9986855   -1.6596188 
C     6.9651295    0.8783703   -2.6753434 
C     7.6873779    0.5039907   -1.5881582 
C     8.9925409    0.8932303   -1.5125138 
C     9.5486082    1.6441472   -2.5113163 
C     8.8023558    2.0109664   -3.5919005 
C     7.5144089    1.6114259   -3.6446058 
H     7.2469649   -0.0894558   -0.7922607 
H     9.5937733    0.6057171   -0.6531836 
H    10.5892051    1.9515919   -2.4430317 
H     9.2264864    2.6097207   -4.3908284 
N     6.5680138    1.8932853   -4.6653806 
C     5.4038964    1.2292863   -4.1544275 
H     6.6896149    2.4360540   -5.5510745 
H     4.4280874    1.2343523   -4.6402183 
