48
 energy: -8.699018732105 gnorm: 0.000677628815 xtb: 6.6.0 (2ccbbd7)
C            2.30441384168447        1.03911130167716       -7.70981713708015
C            2.63207338463567        0.77443097273300       -6.40160527818498
C            1.60847037608029        0.09980421968110       -8.47148311975902
C            1.25327565756719       -1.10666084536274       -7.86875322163712
C            1.58532790804245       -1.36480552975851       -6.56033008696019
C            2.28659992503447       -0.43255486248196       -5.81029431736955
H            3.14150039427249        1.51952818852558       -5.81498440901003
H            0.71250761207526       -1.82841083984839       -8.45457687309327
H            1.29975197014467       -2.29691845913899       -6.10408765636768
H            2.57630162471541        1.97865928867068       -8.15676316594694
C            2.62013338151291       -0.70195301118479       -4.38203556348971
C            1.54410592702111       -0.27746073987044       -3.37133424549120
H            3.63435404160804       -0.12199399370036       -4.06589114935498
H            2.87953027125412       -1.75733754799382       -4.24656386875187
C            2.14464971837672       -0.06071628480647       -1.99033303816511
O            1.26369006872763        0.33290515323181       -9.78900212383800
H            1.57661534593287        1.22048124763858      -10.06699172420052
O            2.21998055102797       -1.02260916113328       -1.24859762000934
N            0.80986344779092        0.90014168745238       -3.78056372977924
H            0.80296894663022       -1.08654288397371       -3.27277873920965
H            1.55792238768786        1.73071575485985       -3.81739507747194
H            0.41390600025067        0.78218626979307       -4.70612688775320
N            2.60001949381245        1.22574466323773       -1.60315299040320
C            3.97012053732702        1.71707611153400       -1.95771722795194
H            2.46471937721376        1.44039109306972       -0.61391259068412
C            3.88868548449864        2.91705409935004       -2.85577534861434
O            4.65073284587358        4.00451633270190       -2.51433614289465
O            3.09657767871301        2.89348806628213       -3.97246177934602
H            2.21865351745797        2.29792407581317       -3.84049512202705
C            4.81942802441274        0.58414782672245       -2.52942095190513
H            4.46164333280463        2.05690433486669       -1.03335422620954
C            6.28646812565310        0.78459653197515       -2.74893179023356
H            4.26227560779095        0.23040341344298       -3.54158362561557
H            4.70099801908149       -0.28405939153402       -1.86931620795905
C            7.12224926668951        1.94044453732438       -2.60283197582053
C            6.88042503655520        3.29458070150014       -2.33150991592609
C            7.92495190075252        4.16550012887220       -2.23945070248686
C            9.24762748988523        3.72845380151497       -2.41070956306548
C            9.52157282545256        2.41960522622051       -2.69518470408874
C            8.45467246723341        1.51735853466884       -2.79845815256893
H            5.72360377294152        3.69707443334109       -2.36761425078270
H            7.72830880141973        5.20834003615459       -2.05355678673740
H           10.05421530042474        4.43817108268176       -2.33075565851493
H           10.52895163245777        2.07281712937340       -2.84029957493527
N            8.42791069766498        0.16562237684377       -3.07755422406151
C            7.12602294030143       -0.26270550202277       -3.04385551838816
H            9.25322763683749       -0.40991798107103       -3.25419031901460
H            6.81435259086608       -1.28339193165281       -3.19756458266028
