48
Energy =
C     1.7184001    5.3194701    0.7805239 
C     1.7618566    4.1272594    0.1549066 
C     2.2103279    6.4438469    0.2099157 
C     2.7651645    6.4281704   -1.0159477 
C     2.8662983    5.3020734   -1.7456133 
C     2.3734537    3.9487405   -1.2360494 
H     1.3499309    3.2511119    0.6510359 
H     3.1390524    7.3617009   -1.4217681 
H     3.3189369    5.3647852   -2.7288603 
H     1.2739946    5.3730603    1.7689774 
C     1.2316033    3.3884264   -2.1700627 
C     1.1400109    1.8391294   -2.4360078 
H     1.3297513    3.8594975   -3.1728543 
H     0.2471437    3.7519941   -1.8015449 
C     1.7586026    0.9394063   -1.3660304 
O     2.1519424    7.6713498    0.8814340 
H     1.7307418    7.6272865    1.8035464 
O     1.2063262    0.8855819   -0.0907041 
N    -0.2563508    1.4528536   -2.6997814 
H     1.7246722    1.6225941   -3.3595147 
H    -0.8113222    1.5487239   -1.8145588 
H    -0.6775642    2.0897815   -3.4157603 
N     3.0029333    0.2413814   -1.6016204 
C     4.2209143    0.9918719   -2.0175061 
H     2.9608563   -0.8017594   -1.6024101 
C     3.9525204    2.4960423   -2.1102527 
O     4.0367920    3.1378119   -3.3447942 
O     3.4537013    3.0663841   -1.1360244 
H     3.5567701    2.6061067   -0.2884705 
C     4.7484201    0.4107109   -3.3491989 
H     4.9987685    0.8735493   -1.2314291 
C     5.2916741   -0.9901639   -3.1815984 
H     5.5515161    1.0608313   -3.7636643 
H     3.9288822    0.4150555   -4.1019310 
C     6.4798912   -1.3329862   -2.6608716 
C     7.4821439   -0.5479100   -2.1886659 
C     8.6035872   -1.1528412   -1.7017245 
C     8.7048388   -2.5168273   -1.6941636 
C     7.6852249   -3.2843968   -2.1742172 
C     6.5866977   -2.6624122   -2.6513283 
H     7.4035197    0.5351657   -2.1960214 
H     9.4214997   -0.5477524   -1.3179514 
H     9.6015614   -2.9916226   -1.3039652 
H     7.7489782   -4.3672330   -2.1747520 
N     5.4201007   -3.2694210   -3.1886242 
C     4.6309476   -2.1154439   -3.5057368 
H     5.1985844   -4.2831897   -3.3176624 
H     3.6317332   -2.1524498   -3.9340668 
