48
 energy: -9.251016115288 gnorm: 0.000444602362 xtb: 6.6.0 (2ccbbd7)
C            1.73525158364100        5.48598012870457        3.64893167474863
C            1.40763665725976        4.38659098671692        2.89132694318250
C            1.42546723389253        6.77205153044339        3.20505222313843
C            0.78206688370082        6.90855746781876        1.97509768153749
C            0.45841473070550        5.80469222012763        1.22273310908922
C            0.75922940860014        4.52740240555741        1.67324118152311
H            1.65707798990500        3.39874880456013        3.23888800842425
H            0.54750467283069        7.90003223405520        1.63070492416197
H           -0.03302398225439        5.92532622979422        0.27270146627738
H            2.23612529078541        5.36473532271835        4.59282278560252
C            0.45055606731259        3.32252444294712        0.83926810204830
C            1.67366473161778        2.78620119796141        0.09897620541285
H           -0.33208919533858        3.55644565254779        0.11116431078155
H            0.02988736890200        2.53325279520532        1.47127907986054
C            1.37854528517641        1.52150746940636       -0.64959109308280
O            1.73713100503895        7.89740686435255        3.94429359682861
H            2.19923129570580        7.63883079311965        4.77098591515800
O            0.22569646752314        1.19179601362048       -0.85285942464797
N            2.20376597588579        3.78459413109531       -0.88026926196076
H            2.46533759378482        2.57376040311274        0.82854210443827
H            1.40017983180303        4.04534244220895       -1.49207917480550
H            2.42366756612476        4.66007089969240       -0.35893334200230
N            2.42864988166269        0.76518338351133       -1.12046099717514
C            3.86394905993823        1.07244392954287       -0.98360948980092
H            2.22516484307686       -0.06834051065440       -1.66530032862007
C            4.10663653070285        2.54467168377593       -0.88858468738446
O            3.30611299335289        3.35995583947878       -1.66230787139493
O            5.06102834829324        3.04305455759317       -0.03179777781139
H            5.57040502398909        2.31037192943072        0.38027191295412
C            4.65972159919625        0.47550409554606       -2.14535835383456
H            4.19329992443126        0.60530446080257       -0.04476328911187
C            4.52203119196086       -1.00656952240992       -2.23520496884710
H            5.71728005033810        0.74235301496425       -2.05106626279574
H            4.31579049689294        0.93394931289648       -3.07713269389149
C            3.51559656900582       -1.72773162118834       -2.94656991201086
C            2.46231798138131       -1.32703136451703       -3.78818079489914
C            1.62604574743324       -2.28377128585825       -4.29311654686941
C            1.80858583860394       -3.64285537643431       -3.99002319233838
C            2.83063848930915       -4.05697412987726       -3.18047788524315
C            3.69688493696802       -3.09268042037961       -2.64989176967784
H            2.32501412228364       -0.28602240606349       -4.02304425114483
H            0.80974927744907       -1.99111909423182       -4.93265082297524
H            1.12920899214090       -4.37055907991929       -4.40213568102541
H            2.97555160291919       -5.09492684392953       -2.93993729463989
N            4.77915830163220       -3.19257598150031       -1.79341824340872
C            5.26283552069555       -1.93230840501405       -1.54252994859452
H            5.12596071889806       -4.06656142606414       -1.39385556482049
H            6.08583716210329       -1.70701750849723       -0.88382336656237
