48
Energy =
C     3.0330189   -0.9054341    1.1453119 
C     2.4104958    0.2701275    0.8727643 
C     2.3040400   -2.0384765    1.3268844 
C     0.9558842   -1.9861681    1.2399843 
C     0.3288965   -0.8132234    0.9707945 
C     1.0537030    0.3224527    0.7767974 
H     3.0036554    1.1690681    0.7326262 
H     0.3851018   -2.8957774    1.3910969 
H    -0.7555890   -0.7920574    0.9142538 
H     4.1139385   -0.9395173    1.2215310 
C     0.3598740    1.6338507    0.4719839 
C    -0.0154164    1.8117708   -1.0240638 
H     0.9993778    2.4841362    0.7948796 
H    -0.5558003    1.7184697    1.0981657 
C     1.1807238    1.6666428   -1.9724541 
O     2.9144966   -3.2653906    1.6064643 
H     3.9265238   -3.2229676    1.6506801 
O     1.0791030    0.7917323   -3.0517832 
N    -1.1317752    0.9219757   -1.3905346 
H    -0.3660185    2.8589930   -1.1686525 
H    -0.7888457   -0.0636887   -1.4848743 
H    -1.8865018    0.9454548   -0.6673179 
N     2.1965627    2.6964707   -2.0153210 
C     3.6237919    2.2888151   -2.2113389 
H     2.1240990    3.2775431   -1.1495535 
C     4.2879726    3.1414691   -3.3094894 
O     5.4634205    2.7027146   -3.9063626 
O     3.8241783    4.4096518   -3.6661507 
H     2.9387629    4.6296728   -3.2390864 
C     3.8276589    0.7609541   -2.4669347 
H     4.1868961    2.5484824   -1.2868030 
C     5.2657071    0.3090935   -2.2874282 
H     3.4504044    0.5127829   -3.4824613 
H     3.2218418    0.1540416   -1.7647344 
C     6.0899622   -0.1950391   -3.2243674 
C     5.8882613   -0.4004336   -4.5530229 
C     6.9044256   -0.9349922   -5.2893130 
C     8.0939243   -1.2543198   -4.6964241 
C     8.2761833   -1.0382886   -3.3634008 
C     7.2571701   -0.5069191   -2.6557947 
H     4.9546239   -0.1346456   -5.0375477 
H     6.7695607   -1.1003434   -6.3557893 
H     8.8997760   -1.6765115   -5.2917596 
H     9.2153612   -1.2823781   -2.8787030 
N     7.2447739   -0.2086746   -1.2672711 
C     5.9209033    0.3148360   -1.1118536 
H     7.9984782   -0.3462120   -0.5554092 
H     5.5114334    0.6663473   -0.1692661 
