48
Energy =
C    -3.8918191   -0.7233052   -2.5821349 
C    -2.7447584   -0.0320147   -2.8004388 
C    -3.8881418   -1.8149254   -1.7714223 
C    -2.7351187   -2.2068567   -1.1833353 
C    -1.5849407   -1.5191220   -1.3976100 
C    -1.5824033   -0.4275855   -2.2110248 
H    -2.7652939    0.8413386   -3.4472997 
H    -2.7465287   -3.0784482   -0.5380460 
H    -0.6686719   -1.8485961   -0.9152135 
H    -4.8117793   -0.3996981   -3.0567776 
C    -0.3023062    0.3461344   -2.4384131 
C     0.0386831    1.2735247   -1.2474086 
H    -0.3706312    0.9477627   -3.3732069 
H     0.5198419   -0.3864571   -2.5945921 
C     1.4691657    1.7931633   -1.3406587 
O    -5.0522650   -2.5498259   -1.5252448 
H    -5.8735875   -2.1923882   -2.0010596 
O     1.7272851    3.1595522   -1.3162848 
N    -0.9322108    2.3775130   -1.1608288 
H     0.0017588    0.6927213   -0.2973495 
H    -0.9313655    2.9306457   -2.0514130 
H    -1.8981304    2.0046238   -1.0103366 
N     2.5706885    0.8822425   -1.1799931 
C     3.6749372    0.8691852   -2.1722340 
H     2.4623050    0.1074707   -0.4876976 
C     3.5251985    1.8595157   -3.3359731 
O     4.4441462    2.8940218   -3.4668351 
O     2.5447471    1.7094145   -4.3190126 
H     1.9744142    0.8981948   -4.1511809 
C     3.8993487   -0.5739765   -2.6869385 
H     4.5962958    1.2059512   -1.6451670 
C     4.4602199   -1.4795714   -1.6124418 
H     4.6063421   -0.5719898   -3.5475797 
H     2.9422830   -0.9953171   -3.0643373 
C     5.7249453   -1.5064671   -1.1640851 
C     6.8016511   -0.7752213   -1.5515277 
C     7.9932334   -0.9956739   -0.9253712 
C     8.0897707   -1.9331839    0.0658779 
C     6.9949849   -2.6564949    0.4367383 
C     5.8275072   -2.4199843   -0.1975501 
H     6.7271983   -0.0314426   -2.3398031 
H     8.8708651   -0.4226282   -1.2158556 
H     9.0430654   -2.1025771    0.5605139 
H     7.0541936   -3.4035876    1.2209579 
N     4.5786258   -3.0561089    0.0352014 
C     3.7475959   -2.3875318   -0.9221714 
H     4.3347459   -3.8069443    0.7210681 
H     2.6879591   -2.5869628   -1.0600726 
