48
 energy: -9.175319165188 gnorm: 0.000343858572 xtb: 6.6.0 (2ccbbd7)
C            0.10770028116735       -0.03443055928882        3.50071092563966
C           -0.28205366185981        0.95303296523001        2.62519691787501
C            1.25072073367788       -0.79500517285297        3.25294501335002
C            1.98063438764634       -0.52061926534832        2.09968627523448
C            1.58565320529022        0.46929115831655        1.23646801111741
C            0.44337199362489        1.22044049828935        1.47108925337789
H           -1.16211089327579        1.53661843947989        2.83494043009900
H            2.85680005458966       -1.10756671954949        1.89780387350621
H            2.16050983165828        0.65353244227526        0.34934973448493
H           -0.46615276347057       -0.22886150523201        4.38907859284341
C            0.00769601454283        2.33575049063067        0.55900238911498
C            0.36748408171013        2.17366411507514       -0.93104919194864
H            0.43744361373792        3.27346814820524        0.92662135284140
H           -1.07788869148778        2.44814148540755        0.64855112890332
C            1.83174029344556        2.36379817044069       -1.15995800739425
O            1.67261981754068       -1.79679994643279        4.10728417776265
H            1.06417539250383       -1.85793419513198        4.87540556431241
O            2.39828538110724        3.63211507964254       -0.95440005898237
N           -0.09125543787718        0.89835594276398       -1.47313765947477
H           -0.13338896901871        2.96714231342037       -1.51118744784750
H            0.36591039956087        0.13558910198476       -0.99241941358771
H           -1.08596753144975        0.78811507472708       -1.32202877184866
N            2.60288071810946        1.28604842452999       -1.55100265889968
C            4.03767398893408        1.42683660156820       -1.74974135756919
H            2.17956555966149        0.60291052642726       -2.18324195062711
C            4.31001454475885        2.73926403751807       -2.43917252829336
O            4.95395923527473        2.76264512508226       -3.48425659434004
O            3.78299982842040        3.87182504143557       -1.78832620517326
H            3.52309549794337        3.62504337214632       -0.69327120723342
C            4.62468204985524        0.22603881159358       -2.49728903909685
H            4.48406240755046        1.47547747537378       -0.74640304418716
C            4.16674158959990       -1.06740980632526       -1.91133204164153
H            5.71808529356280        0.27826188755572       -2.50133096323107
H            4.31939805933936        0.28499420608206       -3.54663654009996
C            4.46376071222005       -1.56130151000468       -0.60548920466757
C            5.29994562162660       -1.10148441437919        0.42693884035641
C            5.35131793578148       -1.81071726409147        1.59546700596373
C            4.58746350961802       -2.97591893601480        1.77371444630164
C            3.76669037606316       -3.44226987053138        0.78354875104089
C            3.69997825564784       -2.73061669097009       -0.42105394815655
H            5.88709506148757       -0.21161843333816        0.28610640212783
H            5.98593400547868       -1.46999944787832        2.39673663608341
H            4.64371451473916       -3.50565955105011        2.71040218777701
H            3.17244158783414       -4.32888993913353        0.91365650233809
N            2.96326874546675       -2.93316736059473       -1.57473265066240
C            3.24897959888408       -1.92729123422826       -2.46444504689803
H            2.32010713734434       -3.71253204538171       -1.72557563890387
H            2.79703597603835       -1.81978171025814       -3.43728908334009
