48
Energy =
C     0.4686756   -4.3294095   -4.3534270 
C     1.2422724   -3.4130653   -3.7186819 
C    -0.6049358   -4.8735613   -3.7203397 
C    -0.8965541   -4.4958576   -2.4547410 
C    -0.1263220   -3.5796959   -1.8147635 
C     0.9472377   -3.0303725   -2.4457739 
H     2.0995491   -2.9863077   -4.2366525 
H    -1.7546848   -4.9382756   -1.9612872 
H    -0.3746567   -3.2926961   -0.7966012 
H     0.7123762   -4.6254869   -5.3679824 
C     1.8228784   -2.0218658   -1.7378001 
C     3.1206134   -2.6629233   -1.1909709 
H     1.2688680   -1.5188320   -0.9139777 
H     2.0779743   -1.2142724   -2.4609576 
C     4.1324093   -1.6025892   -0.7962753 
O    -1.4222461   -5.8217812   -4.3448473 
H    -1.1383398   -6.0467670   -5.2921480 
O     3.7362409   -0.4753747   -0.0823234 
N     2.8286728   -3.5485161   -0.0525187 
H     3.5997511   -3.2599959   -2.0037960 
H     2.2994673   -3.0224931    0.6839157 
H     2.2263697   -4.3441340   -0.3700545 
N     5.4916928   -1.7127075   -1.2310251 
C     5.9300834   -0.7624059   -2.2666543 
H     6.1024164   -2.4389910   -0.7936481 
C     5.1517974   -0.9721883   -3.5660441 
O     5.4675573   -2.0435114   -4.3953598 
O     4.0774720   -0.1536862   -3.9168863 
H     3.9186623    0.5761199   -3.2360482 
C     7.4507575   -0.9133534   -2.4766768 
H     5.7390059    0.2738086   -1.9052820 
C     7.9872211    0.1324980   -3.4289651 
H     7.6808141   -1.9329774   -2.8628233 
H     7.9730926   -0.8206198   -1.4994175 
C     8.3132863    1.3989322   -3.1286985 
C     8.2823080    2.0456246   -1.9353195 
C     8.6583188    3.3562148   -1.8990018 
C     9.0517936    3.9940559   -3.0431829 
C     9.0704651    3.3248974   -4.2311575 
C     8.6967361    2.0281167   -4.2404697 
H     7.9643559    1.5414299   -1.0271130 
H     8.6421429    3.8967318   -0.9555596 
H     9.3473725    5.0395538   -3.0062027 
H     9.3736366    3.8170835   -5.1488569 
N     8.6269022    1.1617127   -5.3642568 
C     8.1498862   -0.0448309   -4.7520688 
H     8.8630775    1.3531277   -6.3648482 
H     7.9157145   -0.9622527   -5.2913570 
