48
Energy =
C     3.7212744    6.9253530    2.3759384 
C     3.1790903    6.0189027    1.5243776 
C     4.8196407    7.6376215    2.0077716 
C     5.3683673    7.4371381    0.7879182 
C     4.8307991    6.5318279   -0.0683001 
C     3.7288066    5.8195766    0.2949348 
H     2.3030144    5.4545590    1.8356307 
H     6.2450331    8.0108658    0.5069056 
H     5.2918485    6.3841137   -1.0426404 
H     3.2749940    7.0776848    3.3527978 
C     3.1368309    4.7952038   -0.6446539 
C     3.5711485    3.3509052   -0.2809665 
H     3.3981745    5.0307767   -1.7043603 
H     2.0250383    4.8710458   -0.6253185 
C     2.7449526    2.3335809   -1.0690066 
O     5.4042286    8.5778157    2.8622595 
H     4.9324323    8.6736455    3.7550031 
O     1.3818820    2.2778592   -0.7825756 
N     5.0290944    3.1809668   -0.4362443 
H     3.2960786    3.1452835    0.7810989 
H     5.3855468    3.7136540   -1.2643676 
H     5.5126447    3.5848042    0.4009225 
N     3.3125160    1.2979471   -1.9003033 
C     4.1203053    1.7857936   -3.0548514 
H     2.4821345    0.7659952   -2.2418597 
C     3.8201537    3.2098133   -3.5295986 
O     2.5192626    3.6822486   -3.5844813 
O     4.8374270    4.0924789   -3.8809560 
H     5.7382886    3.6400210   -3.9378191 
C     4.0916735    0.7804456   -4.2336913 
H     5.1748291    1.8013206   -2.7065123 
C     2.7090586    0.5608098   -4.8271404 
H     4.5296596   -0.1795068   -3.8912024 
H     4.7642857    1.1460728   -5.0411975 
C     1.9433022   -0.5393856   -4.7107752 
C     2.1761155   -1.7023061   -4.0457571 
C     1.2174078   -2.6717422   -4.0774359 
C     0.0519051   -2.4690441   -4.7621037 
C    -0.1630741   -1.2944989   -5.4186039 
C     0.8006591   -0.3511137   -5.3748939 
H     3.0924441   -1.8693687   -3.4894820 
H     1.3788286   -3.6091168   -3.5506028 
H    -0.7089684   -3.2452036   -4.7788346 
H    -1.0851526   -1.1146181   -5.9608071 
N     0.7665114    0.9333925   -5.9769381 
C     2.0371585    1.4617519   -5.5690912 
H     0.0251966    1.3697855   -6.5717578 
H     2.3847549    2.4724400   -5.7884115 
