48
 energy: -9.286621880368 gnorm: 0.000648496666 xtb: 6.6.0 (2ccbbd7)
C            0.54805340932868       -1.15855722249853       -5.31730614753039
C            0.47863748287025        0.20400051278568       -5.14349298708613
C            0.21954521636052       -2.02423971320398       -4.27295572453262
C           -0.24457340094699       -1.47521533018056       -3.07799911296502
C           -0.30852929173893       -0.11371689891619       -2.91399447604904
C            0.06684075031147        0.74779679494185       -3.93495981991046
H            0.77882399376672        0.86341880419166       -5.93955460183363
H           -0.49447733451392       -2.14056456581091       -2.27098584155314
H           -0.58585250666764        0.30293971777963       -1.96045379069171
H            0.90152913684628       -1.57047237320686       -6.24549036496403
C            0.15425362561369        2.22079892630886       -3.68184966828696
C            1.46481899693139        2.60432937524973       -2.97193578446514
H           -0.69605201153474        2.53040571764216       -3.06503192664820
H            0.06467349418118        2.76261786207633       -4.62842014977793
C            1.47715578570557        1.99437125392443       -1.57249845812813
O            0.41578631029532       -3.39194141183822       -4.35954587848666
H            0.68072391520019       -3.63410026986073       -5.27370367990662
O            0.40160222252048        1.93878372825276       -1.00228543598490
N            2.60324290844415        2.21305371567018       -3.79978611109941
H            1.48625472506063        3.69953948562782       -2.83680068961961
H            2.47364453877248        2.53873251434133       -4.74805956389629
H            3.42900280593996        2.68925746575441       -3.44863330935151
N            2.59327936040428        1.48838736894184       -0.91585374590928
C            4.01955019963929        1.84579380578614       -1.08873140555201
H            2.41709488954418        1.02406228324157       -0.02669327905274
C            4.16545377580695        3.29784619101669       -1.49745127953733
O            4.86143305698754        3.57135587739779       -2.45263044301921
O            3.45462746554286        4.18299165119864       -0.75831426997026
H            2.90917986220882        3.70906029988943       -0.08884509713948
C            4.77942461655722        0.88232215176271       -2.02492047396512
H            4.47881090872220        1.76293920526752       -0.09046668107276
C            4.19334018210246       -0.48540848719661       -2.09406856467777
H            5.83526900848155        0.82487395619739       -1.73983779677889
H            4.78933371090611        1.29905276667950       -3.03535425877466
C            4.55931941284675       -1.64673231854830       -1.35233464350537
C            5.53345076932716       -1.89076491709653       -0.36946215094145
C            5.62262318842967       -3.14590354217564        0.16624222777397
C            4.76399140802237       -4.17772688643005       -0.24804071343975
C            3.80834037515348       -3.96352682384283       -1.20324615558835
C            3.70028988961327       -2.68597513082651       -1.76548759010859
H            6.18510683995408       -1.09633661442083       -0.05179785006388
H            6.36369526234734       -3.34995093572419        0.92120195339743
H            4.86029122941082       -5.15429526156142        0.19681989596186
H            3.14375585547060       -4.74536097196116       -1.52455808322472
N            2.84395193947928       -2.16830285603456       -2.72027306513765
C            3.14051505006737       -0.84110847898674       -2.89495755140165
H            2.09119945132702       -2.68509387300976       -3.19449669531603
H            2.60526999453117       -0.15760667250409       -3.53095277261260
