48
Energy =
C    -0.9428096    0.1011356    3.8218739 
C     0.2636454    0.6112146    3.4664672 
C    -1.2987856   -1.1503607    3.4279543 
C    -0.4422144   -1.8847979    2.6838524 
C     0.7660937   -1.3811883    2.3287237 
C     1.1246074   -0.1215756    2.7049151 
H     0.5346246    1.6088229    3.7995534 
H    -0.7356819   -2.8820801    2.3757920 
H     1.4407989   -1.9935042    1.7360778 
H    -1.6207895    0.6955663    4.4248607 
C     2.4806852    0.4452149    2.3188506 
C     2.4910486    1.3480616    1.0525223 
H     3.2065114   -0.3865505    2.1731524 
H     2.8767549    1.0317284    3.1770825 
C     2.3530700    0.5841122   -0.2681556 
O    -2.5334716   -1.7061250    3.7785340 
H    -3.1220288   -1.0894858    4.3278615 
O     1.6110300   -0.5867297   -0.3190896 
N     1.5073780    2.4378511    1.1450649 
H     3.4986888    1.8133908    1.0274279 
H     0.5365655    2.0422729    1.0997891 
H     1.6091225    2.9386953    2.0584345 
N     2.6975371    1.2088495   -1.5173277 
C     4.1650426    1.3244389   -1.7224562 
H     2.2104223    2.1359427   -1.5296970 
C     4.5419670    2.6741847   -2.3410213 
O     5.0626408    2.7426839   -3.6279425 
O     4.3886216    3.8593621   -1.6224446 
H     3.9529725    3.7068715   -0.7252122 
C     4.6393555    0.1490048   -2.6061121 
H     4.7356059    1.2856072   -0.7676732 
C     4.5887805   -1.1736362   -1.8727751 
H     5.6889145    0.3202685   -2.9374148 
H     4.0297631    0.1163340   -3.5348938 
C     3.6554831   -2.1338464   -1.9842975 
C     2.5413708   -2.1855101   -2.7594280 
C     1.7437334   -3.2889675   -2.6763496 
C     2.0672655   -4.3134646   -1.8304615 
C     3.1888948   -4.2390151   -1.0594379 
C     3.9613200   -3.1366898   -1.1584453 
H     2.2677564   -1.3641310   -3.4137263 
H     0.8401940   -3.3476357   -3.2781500 
H     1.4237079   -5.1872424   -1.7674955 
H     3.4574321   -5.0404135   -0.3798538 
N     5.1576452   -2.8614046   -0.4425615 
C     5.4961921   -1.5695129   -0.9622016 
H     5.6506832   -3.4446244    0.2719414 
H     6.3692536   -0.9956401   -0.6598279 
