48
Energy =
C    -0.7617267    2.5507944    0.8253938 
C    -0.0117044    3.5157583    0.2354518 
C    -2.0371847    2.3278964    0.4122595 
C    -2.5555285    3.0748727   -0.5873280 
C    -1.8111263    4.0406570   -1.1809635 
C    -0.5271251    4.2643468   -0.7801522 
H     1.0020025    3.6821520    0.5896189 
H    -3.5755422    2.8896239   -0.9054597 
H    -2.2514883    4.6306959   -1.9801862 
H    -0.3381204    1.9591787    1.6302375 
C     0.3085712    5.3469048   -1.4441868 
C     1.3142594    4.8224950   -2.5044653 
H     0.8751244    5.8966053   -0.6570751 
H    -0.3492761    6.1032640   -1.9249799 
C     2.3933680    3.9400296   -1.9015247 
O    -2.8369408    1.3424207    0.9986082 
H    -2.3758144    0.8223774    1.7376895 
O     3.0340087    4.3577015   -0.7377972 
N     0.6343811    4.1507104   -3.6312183 
H     1.8765178    5.7062715   -2.8941962 
H    -0.3669681    3.9296258   -3.4427244 
H     0.6676260    4.7639594   -4.4802124 
N     3.0326159    2.9410804   -2.7022926 
C     4.3341766    3.2816279   -3.3210927 
H     2.5369477    2.0291837   -2.8096653 
C     4.3350826    4.6498546   -4.0168042 
O     4.2297680    4.7487075   -5.3971681 
O     4.4602136    5.8340576   -3.2890656 
H     4.5865486    5.6605320   -2.3016433 
C     4.8355898    2.1292424   -4.2436636 
H     5.0836757    3.3861313   -2.5044811 
C     3.7439104    1.3661322   -4.9849433 
H     5.4256688    1.4337689   -3.6153647 
H     5.5500995    2.5271204   -4.9999683 
C     3.5299335    0.0357330   -4.9633248 
C     4.1916788   -0.9511269   -4.3000045 
C     3.7618966   -2.2370426   -4.4487340 
C     2.6898876   -2.5194669   -5.2476247 
C     2.0404555   -1.5174849   -5.9032824 
C     2.4835466   -0.2533660   -5.7410422 
H     5.0433229   -0.7432336   -3.6623425 
H     4.2753610   -3.0422787   -3.9286736 
H     2.3537726   -3.5470744   -5.3611123 
H     1.1879772   -1.7235196   -6.5415525 
N     1.9475272    0.9188813   -6.3313291 
C     2.8196583    1.9205944   -5.7935537 
H     1.1362392    1.0308523   -6.9808766 
H     2.7190512    2.9795167   -6.0040442 
