48
 energy: -9.067571613122 gnorm: 0.000728481145 xtb: 6.6.0 (2ccbbd7)
C            0.35290224661053        4.57004144334012       -1.31448873048763
C            0.47169895064464        3.50117575585990       -0.45840841291994
C            0.91167198698981        5.80594426437124       -0.98724320928501
C            1.59313738588396        5.92145622668927        0.22380635460564
C            1.71219236169175        4.84549372198740        1.07075229862285
C            1.14896040665139        3.62046815768058        0.74475041881533
H            0.07378610888900        2.53852417771101       -0.73177401051760
H            2.03166773991894        6.87119161996712        0.47211877467468
H            2.25212527124149        4.94632408269433        1.99648784586658
H           -0.15003346907077        4.45452357852269       -2.25779751225907
C            1.31444171731860        2.43379414968134        1.64058177697069
C            2.36724691726800        1.43805668936527        1.13082273408448
H            0.35175961128580        1.92010249588123        1.73642280768049
H            1.57976390677467        2.77536183554228        2.64631819133096
C            1.84611114309252        0.67804664230701       -0.08604277112288
O            0.80722920873371        6.90282546698781       -1.82127378190390
H            0.36694518307204        6.64482796253995       -2.65909478367413
O            0.67206474906980        0.35406206584941       -0.07095764008786
N            3.65264183045407        2.09109803764715        0.93215239921938
H            2.52594325202861        0.66897265227091        1.90507644795871
H            3.60225589439434        2.73923995871625        0.15020398147783
H            3.91158545293879        2.62678216555361        1.74980701395795
N            2.64882848289551        0.30948413145005       -1.16045251945491
C            3.74342393378738        1.13195267076964       -1.69274705961583
H            2.20573424325575       -0.23893429313757       -1.89456762383354
C            3.19226029996658        2.46955655815477       -2.09691294727506
O            3.87463981271828        3.59574460636246       -1.72734036542751
O            2.01968969861509        2.49269244181948       -2.81901929300519
H            1.56440216383977        1.62180623700056       -2.74560435704264
C            4.46480658298417        0.44404791713316       -2.86143167195462
H            4.46951894222226        1.25630551086609       -0.87946341865514
C            5.90630599906139        0.81671548233146       -3.03494442080643
H            3.92067082847854        0.64389634401152       -3.78958318665657
H            4.40953365592981       -0.63975086632122       -2.71160007822682
C            6.57123849702719        2.05507451848797       -2.76042178285032
C            6.15615213900730        3.29285311846103       -2.24735545678147
C            7.05997917224935        4.30334591381841       -2.11029683967008
C            8.40408147134752        4.12671867051004       -2.47373986342936
C            8.84396862499491        2.93385451518194       -2.97718179248941
C            7.92453094241595        1.88684004998213       -3.12291428537167
H            4.97887722198627        3.46944744422900       -1.95767591834754
H            6.73362623608027        5.25441956463394       -1.72356327917423
H            9.09530126372511        4.94481240045528       -2.35660936856471
H            9.87040620222932        2.78602760064950       -3.26127083483518
N            8.07239464434488        0.59971867232199       -3.60279131895163
C            6.85573731651962       -0.03126792039409       -3.55130649643109
H            8.94729393797820        0.20500759138610       -3.95278928594746
H            6.67620571904483       -1.04361376827801       -3.87548335810037
