48
Energy =
C    -0.9628641    1.3743816   -4.3727230 
C    -1.0763567    0.7245089   -3.1916779 
C     0.2600632    1.6408310   -4.8946671 
C     1.3729567    1.2639892   -4.2150214 
C     1.2872324    0.6518456   -2.9918948 
C     0.0308397    0.3453767   -2.4991522 
H    -2.0677261    0.5070364   -2.8020784 
H     2.3470658    1.4456963   -4.6514054 
H     2.4083521    0.1628631   -2.4475233 
H    -1.8583033    1.6688044   -4.9086206 
C    -0.1589409   -0.3801037   -1.1748268 
C     1.1009322   -0.3932129   -0.2846461 
H    -0.4858239   -1.4231733   -1.3748809 
H    -0.9756823    0.1293671   -0.6146562 
C     1.8489927    0.9203248   -0.4231094 
O     0.3949916    2.2860315   -6.1342683 
H    -0.4856494    2.5474007   -6.5618641 
O     1.5841765    1.9754859    0.4421635 
N     0.7519823   -0.6978550    1.1113047 
H     1.7915316   -1.1847579   -0.6543698 
H     0.1793223    0.0857940    1.5103507 
H     0.1640182   -1.5630975    1.1486871 
N     2.5043745    1.2011071   -1.6961247 
C     3.9924267    1.2495191   -1.4959706 
H     2.2824105    2.2397090   -1.8931921 
C     4.4621972    2.4994936   -0.7259550 
O     4.6874348    3.6806238   -1.4220081 
O     4.7069279    2.4684517    0.6446806 
H     4.2408431    1.6956624    1.0969737 
C     4.7373850    1.1397668   -2.8594025 
H     4.3254100    0.3978889   -0.8496280 
C     4.9521984   -0.2999223   -3.2906316 
H     5.7441358    1.6116236   -2.7880439 
H     4.2109310    1.7447436   -3.6365156 
C     5.8303260   -1.1643962   -2.7539292 
C     6.7259034   -0.9817821   -1.7490669 
C     7.5136454   -2.0337347   -1.3838753 
C     7.3978486   -3.2375610   -2.0225550 
C     6.4948134   -3.3959204   -3.0317723 
C     5.7267888   -2.3402822   -3.3738680 
H     6.8255231   -0.0232510   -1.2465082 
H     8.2402101   -1.9132940   -0.5830739 
H     8.0308859   -4.0709933   -1.7270171 
H     6.3928138   -4.3429205   -3.5512966 
N     4.7367962   -2.2919553   -4.3899963 
C     4.2861789   -0.9358626   -4.2730141 
H     4.4193173   -3.0427583   -5.0456405 
H     3.5192052   -0.4976786   -4.9049528 
