48
Energy =
C     3.7343293    2.4848921    3.7261282 
C     2.7279141    2.3172216    2.8315034 
C     4.5999242    3.5254756    3.5951271 
C     4.4479408    4.3960472    2.5716358 
C     3.4394120    4.2377781    1.6784367 
C     2.5738551    3.1933306    1.8003750 
H     2.0562185    1.4692396    2.9417945 
H     5.1511391    5.2157550    2.4679922 
H     3.3461639    4.9432331    0.8563844 
H     3.8497791    1.7793666    4.5419504 
C     1.4823144    2.9823472    0.7722701 
C     2.0551914    2.5546276   -0.6003441 
H     0.9128580    3.9314151    0.6614984 
H     0.7524872    2.2167059    1.1215188 
C     2.8643651    1.2658999   -0.5131095 
O     5.6542838    3.7182534    4.4936818 
H     5.6939289    3.0295919    5.2369800 
O     2.1914270    0.0555135   -0.3814509 
N     0.9606069    2.4303979   -1.5793380 
H     2.7588040    3.3348434   -0.9603212 
H     0.2773508    1.6999957   -1.2617559 
H     0.4413910    3.3368689   -1.6564815 
N     4.2479658    1.3026732   -0.1272001 
C     5.2842731    1.6687174   -1.1131146 
H     4.4872767    1.0667921    0.8616725 
C     5.4586136    3.1851396   -1.2008124 
O     4.7866326    3.9127461   -2.1764060 
O     6.1936419    3.8870669   -0.2463861 
H     6.5897081    3.2706828    0.4489773 
C     5.0099598    0.9914763   -2.4780612 
H     6.2514277    1.2671205   -0.7360200 
C     6.2285166    1.0216641   -3.3776675 
H     4.1349881    1.4592829   -2.9784066 
H     4.7356930   -0.0730986   -2.3032457 
C     6.4480933    1.8184224   -4.4383692 
C     5.6597532    2.7737227   -4.9967716 
C     6.1278617    3.4473169   -6.0864339 
C     7.3613710    3.1586370   -6.6001262 
C     8.1350468    2.1944205   -6.0265846 
C     7.6510451    1.5428925   -4.9482573 
H     4.6810558    3.0122332   -4.5936869 
H     5.5171756    4.2212662   -6.5451957 
H     7.7277381    3.7020014   -7.4674630 
H     9.1164366    1.9536474   -6.4207199 
N     8.2940718    0.5130035   -4.2114906 
C     7.3060750    0.2335118   -3.2128010 
H     9.2322465    0.0758429   -4.3596819 
H     7.4206617   -0.5109373   -2.4286708 
