48
Energy =
C     2.6319959   -2.7474841    4.6963623 
C     2.8174806   -1.6627563    3.9019797 
C     3.5641820   -3.7370290    4.7305742 
C     4.6768288   -3.6335202    3.9687701 
C     4.8675714   -2.5511684    3.1726722 
C     3.9388563   -1.5565698    3.1372528 
H     2.0632783   -0.8795348    3.8833650 
H     5.4122524   -4.4297070    4.0044700 
H     5.7662155   -2.4890931    2.5648649 
H     1.7361483   -2.8219013    5.3033164 
C     4.1344352   -0.3560005    2.2383724 
C     3.3109360   -0.4652759    0.9306247 
H     5.2111617   -0.2138776    1.9966907 
H     3.8325725    0.5586707    2.8000955 
C     3.3256137    0.8473998    0.1611900 
O     3.4029668   -4.8690642    5.5360504 
H     2.5475578   -4.8688977    6.0808756 
O     3.0604471    2.0212243    0.8548759 
N     3.8024992   -1.5837856    0.1063289 
H     2.2380132   -0.6328619    1.1830511 
H     4.8434553   -1.5248556    0.0087401 
H     3.5852914   -2.4911648    0.5826203 
N     3.1295248    0.8587511   -1.2567012 
C     4.3177172    1.0532954   -2.1032343 
H     2.1802301    0.6551724   -1.6408162 
C     4.1971371    2.3540332   -2.8931530 
O     3.0347556    2.6059354   -3.6148664 
O     5.2563530    3.2575448   -2.9977184 
H     6.0599584    2.9712491   -2.4597254 
C     4.4549245   -0.1596506   -3.0456304 
H     5.2314725    1.1170864   -1.4681209 
C     5.7897304   -0.1649825   -3.7577577 
H     3.6177778   -0.1766040   -3.7785733 
H     4.3625981   -1.0975858   -2.4565791 
C     6.0779196    0.3800995   -4.9514234 
C     5.2753475    1.0332856   -5.8311189 
C     5.8274499    1.5057634   -6.9852000 
C     7.1576721    1.3199686   -7.2417436 
C     7.9447312    0.6618553   -6.3440864 
C     7.3753826    0.2040140   -5.2092493 
H     4.2202545    1.1924518   -5.6293954 
H     5.2062879    2.0397954   -7.7007089 
H     7.5902784    1.7040101   -8.1622897 
H     9.0027558    0.5110893   -6.5293889 
N     8.0159713   -0.4890169   -4.1472447 
C     6.9194429   -0.6843758   -3.2461684 
H     9.0166623   -0.7769606   -4.0510570 
H     7.0005006   -1.1729623   -2.2783675 
