48
Energy =
C     2.4907236    4.4219693    3.7055324 
C     3.0693943    3.2248233    3.4346655 
C     2.4913797    5.4090803    2.7702543 
C     3.0720377    5.1912319    1.5686716 
C     3.6523901    3.9959631    1.2916946 
C     3.6566954    3.0046293    2.2262791 
H     3.0569902    2.4445607    4.1914384 
H     3.0653337    5.9870994    0.8310141 
H     4.1143885    3.8411275    0.3166207 
H     2.0262763    4.5869642    4.6717078 
C     4.2861282    1.6657099    1.9120073 
C     3.3325797    0.7553652    1.0944278 
H     4.6000576    1.1468232    2.8448172 
H     5.2365121    1.8421440    1.3541356 
C     4.1040413   -0.3366457    0.3732224 
O     1.9026845    6.6530527    3.0168325 
H     1.4927363    6.7395673    3.9403222 
O     4.9651973   -1.1664923    1.0866708 
N     2.3025844    0.1705568    1.9671904 
H     2.8276965    1.3518030    0.2983120 
H     2.7547125   -0.3692456    2.7442580 
H     1.7269908    0.9311446    2.3978815 
N     4.0656819   -0.4366732   -1.0610406 
C     5.1919375    0.3146602   -1.6642987 
H     4.1877608   -1.4586833   -1.2496552 
C     4.9864445    1.8200976   -1.5256827 
O     5.9596087    2.5907340   -0.9065045 
O     3.8069151    2.4454045   -1.9255436 
H     3.1612647    1.7750615   -2.3182367 
C     5.3399934   -0.0908707   -3.1484224 
H     6.1476501    0.0648683   -1.1397575 
C     6.5910704    0.4963984   -3.7682164 
H     4.4388304    0.2073884   -3.7254691 
H     5.4016272   -1.1983699   -3.2265553 
C     6.6964314    1.6450413   -4.4571829 
C     5.7434649    2.5506769   -4.7980738 
C     6.1203660    3.6545128   -5.5048276 
C     7.4289398    3.8355466   -5.8577182 
C     8.3691786    2.9141518   -5.5038830 
C     7.9715412    1.8303485   -4.8047052 
H     4.7055959    2.4178491   -4.5110373 
H     5.3765333    4.3977946   -5.7811347 
H     7.7218171    4.7208424   -6.4162921 
H     9.4124088    3.0454736   -5.7696243 
N     8.7877436    0.7673614   -4.3336041 
C     7.8167113   -0.0481432   -3.6658207 
H     9.8159149    0.6187074   -4.4515413 
H     8.0492010   -0.9669575   -3.1323772 
