48
Energy =
C     0.3352935    4.0968922    1.9329877 
C     0.2067316    2.7462572    1.9213629 
C     1.5696871    4.6665534    1.9508292 
C     2.6692594    3.8784077    1.9512966 
C     2.5462513    2.5264472    1.9472799 
C     1.3120344    1.9514675    1.9374416 
H    -0.7867146    2.3055910    1.9021857 
H     3.6504427    4.3435247    1.9473113 
H     3.4428792    1.9112002    1.9401251 
H    -0.5510798    4.7214805    1.9280098 
C     1.1641530    0.4453327    1.9022472 
C     1.0509953   -0.0902197    0.4621348 
H     0.2621829    0.1524721    2.4834713 
H     2.0222927   -0.0494720    2.4135297 
C     2.3799495    0.0477290   -0.2773702 
O     1.7331234    6.0554906    1.9708601 
H     0.8655365    6.5788543    1.9476051 
O     3.4077005   -0.8592152   -0.0212765 
N     0.6093313   -1.4922672    0.5242326 
H     0.2916375    0.5038487   -0.0981836 
H    -0.3897857   -1.5303797    0.8347942 
H     0.6377820   -1.9123615   -0.4352006 
N     2.6724533    1.2572609   -1.0000408 
C     4.0757685    1.5088259   -1.3792830 
H     1.9103297    1.9456397   -1.1951327 
C     4.3726140    2.9916228   -1.4746233 
O     4.9713606    3.6381807   -0.4030529 
O     4.0521181    3.7239239   -2.6101232 
H     3.4552810    3.0793818   -3.3398666 
C     4.4007980    0.7656278   -2.6924891 
H     4.7659751    1.1456031   -0.5787903 
C     3.3651318    0.9985377   -3.7823527 
H     4.4911970   -0.3126549   -2.4444226 
H     5.3970180    1.0864721   -3.0731488 
C     2.8248670    0.0541804   -4.5696136 
C     3.0372990   -1.2915993   -4.5765579 
C     2.3693745   -2.0558993   -5.4857323 
C     1.5096722   -1.4761245   -6.3718291 
C     1.3156328   -0.1291905   -6.3528340 
C     1.9866563    0.6101145   -5.4413426 
H     3.7191225   -1.7701480   -3.8832647 
H     2.5243038   -3.1322271   -5.5061648 
H     0.9811100   -2.0903277   -7.0968620 
H     0.6389647    0.3460990   -7.0551399 
N     1.9042008    2.0207453   -5.2995997 
C     2.7835900    2.3575638   -4.1651010 
H     1.3256206    2.6612242   -5.8942878 
H     2.6074454    3.4530259   -4.2304632 
