48
Energy =
C     0.7949274   -2.7048510   -4.0285159 
C     0.4486169   -2.3895962   -2.7546351 
C     0.0769485   -2.2136748   -5.0737750 
C    -0.9867664   -1.4132262   -4.8358654 
C    -1.3372335   -1.0946806   -3.5646465 
C    -0.6185345   -1.5777941   -2.5134808 
H     1.0324065   -2.7923878   -1.9303910 
H    -1.5554752   -1.0284872   -5.6754575 
H    -2.1941441   -0.4477422   -3.3972088 
H     1.6483027   -3.3495155   -4.2087951 
C    -0.9955916   -1.2076448   -1.0924299 
C    -0.2591191    0.0490515   -0.5603526 
H    -0.7792632   -2.0693967   -0.4200481 
H    -2.0941186   -1.0486474   -1.0238765 
C     1.2534988   -0.1362872   -0.5172236 
O     0.4122605   -2.5121016   -6.3980670 
H     1.2203541   -3.1171761   -6.4915394 
O     1.7608090   -1.2771997    0.0999805 
N    -0.6687064    1.2534633   -1.3079346 
H    -0.5462472    0.1841981    0.5086175 
H    -0.4054724    1.1643697   -2.3170020 
H    -1.7109840    1.3557285   -1.2708654 
N     2.1418635    0.9645065   -0.7781683 
C     3.5833113    0.6633673   -0.9143560 
H     1.7347736    1.9189267   -0.8998912 
C     4.4611088    1.9003768   -0.7510408 
O     5.6243639    1.7988879    0.0006488 
O     4.1770635    3.1196907   -1.3685044 
H     3.3940544    3.0539638   -1.9997357 
C     3.8622670   -0.1008369   -2.2314603 
H     3.8950108    0.0056527   -0.0669489 
C     3.5250970    0.6957236   -3.4722939 
H     3.2747938   -1.0464573   -2.2363137 
H     4.9277869   -0.4175182   -2.2610134 
C     4.3518885    1.4831272   -4.1795902 
C     5.6632387    1.7743092   -3.9795632 
C     6.2777603    2.6278785   -4.8480786 
C     5.5814036    3.1711902   -5.8922252 
C     4.2646222    2.8668523   -6.0714050 
C     3.6791168    2.0210855   -5.1980579 
H     6.2156305    1.3582775   -3.1418758 
H     7.3248684    2.8833165   -4.7037228 
H     6.0776715    3.8531175   -6.5780364 
H     3.6950715    3.2926501   -6.8902374 
N     2.3262588    1.5901579   -5.1961149 
C     2.3101857    0.7397478   -4.0431050 
H     1.5487477    1.8385659   -5.8498051 
H     1.4366205    0.2036094   -3.6870562 
