48
Energy =
C     0.6586434   -4.9958737   -0.2553465 
C     0.6230460   -3.6420110   -0.3416830 
C     1.1365554   -5.5968553    0.8670177 
C     1.5747270   -4.8374702    1.8966874 
C     1.5415325   -3.4831390    1.8159746 
C     1.0624420   -2.8768882    0.6951013 
H     0.2398175   -3.1755679   -1.2457517 
H     1.9531531   -5.3293012    2.7860797 
H     1.9027413   -2.8914721    2.6529945 
H     0.3050246   -5.5963181   -1.0865543 
C     1.0413438   -1.3680871    0.5885490 
C     2.2047216   -0.8206790   -0.2758219 
H     1.0676473   -0.8964280    1.5968063 
H     0.0685656   -1.0564323    0.1443360 
C     2.0530577    0.6704506   -0.5532221 
O     1.1908251   -6.9892841    0.9870628 
H     0.8341635   -7.4863778    0.1782096 
O     1.0873650    1.4135225    0.1152692 
N     3.5007840   -1.1003268    0.3658227 
H     2.1728221   -1.3156043   -1.2739678 
H     3.4983590   -0.7310820    1.3474143 
H     3.6504626   -2.1352112    0.4224233 
N     2.6803473    1.2567699   -1.6989133 
C     4.1460026    1.4215825   -1.6700331 
H     2.0835493    1.4957321   -2.5216906 
C     4.5430086    2.8881022   -1.8072505 
O     5.3233341    3.4739326   -0.8184538 
O     4.2130929    3.6434602   -2.9349884 
H     3.5870041    3.1457386   -3.5480542 
C     4.7574998    0.5404817   -2.7790981 
H     4.5644184    1.1009641   -0.6847287 
C     6.2704878    0.5812890   -2.7566141 
H     4.3924822    0.8690356   -3.7770154 
H     4.4078485   -0.5070782   -2.6521394 
C     7.0902153   -0.2177748   -2.0550789 
C     6.7998856   -1.2608784   -1.2360118 
C     7.8306860   -1.9113779   -0.6239341 
C     9.1216349   -1.5121531   -0.8346547 
C     9.3891842   -0.4591779   -1.6584129 
C     8.3523179    0.1659184   -2.2546638 
H     5.7765773   -1.5758011   -1.0628818 
H     7.6242752   -2.7492716    0.0375875 
H     9.9378131   -2.0332112   -0.3403335 
H    10.4064777   -0.1247338   -1.8312621 
N     8.4116406    1.2850502   -3.1273499 
C     7.0188678    1.4962003   -3.3987567 
H     9.2461034    1.8065778   -3.4819789 
H     6.6216075    2.3164386   -3.9973547 
