48
Energy =
C     1.8046870   -4.1269819    1.8150047 
C     2.0297574   -3.9612530    0.4870264 
C     0.7853894   -3.4640694    2.4233380 
C    -0.0029332   -2.6404490    1.6966797 
C     0.2176426   -2.4710894    0.3683712 
C     1.2394351   -3.1282032   -0.2465562 
H     2.8504013   -4.4958729    0.0162617 
H    -0.8142770   -2.1189962    2.1922303 
H    -0.4339632   -1.8099278   -0.1957646 
H     2.4423487   -4.7906519    2.3886743 
C     1.4984368   -2.9374931   -1.7297923 
C     2.4123250   -1.7266545   -2.0623550 
H     0.5271415   -2.8291965   -2.2624538 
H     1.9560923   -3.8591855   -2.1497279 
C     1.7279888   -0.3729309   -1.7564330 
O     0.5268536   -3.6120822    3.7902168 
H     1.1617730   -4.2467678    4.2612192 
O     0.3679237   -0.2986423   -2.0422866 
N     3.7341604   -1.9127502   -1.4422165 
H     2.5419033   -1.7427743   -3.1664367 
H     3.6354970   -1.9311700   -0.3986360 
H     4.1307162   -2.8390407   -1.7287898 
N     2.3727652    0.9113180   -1.5573473 
C     3.8496058    1.0290254   -1.6005163 
H     2.0062494    1.2563816   -0.6402505 
C     4.3130383    2.3857621   -1.0663558 
O     3.4550095    3.4788868   -1.0885492 
O     5.6235211    2.5779376   -0.6217188 
H     6.1588576    1.7214716   -0.6242108 
C     4.3742345    0.8323187   -3.0438415 
H     4.3155229    0.3009294   -0.9117040 
C     3.7198878    1.7800259   -4.0316169 
H     4.2092661   -0.2130484   -3.3691813 
H     5.4778400    0.9585105   -3.0642592 
C     4.1714037    2.9858222   -4.4173288 
C     5.2990430    3.6531279   -4.0577143 
C     5.5207368    4.8879722   -4.5927035 
C     4.6235068    5.4328253   -5.4687370 
C     3.4970474    4.7471136   -5.8131122 
C     3.3001165    3.5268611   -5.2714351 
H     6.0081190    3.2342768   -3.3497989 
H     6.4110566    5.4461772   -4.3120561 
H     4.8044202    6.4207990   -5.8851556 
H     2.7703477    5.1693355   -6.4991032 
N     2.1924821    2.6642816   -5.4841963 
C     2.5375300    1.5606373   -4.6367701 
H     1.3586403    2.7915064   -6.1027247 
H     1.9056035    0.6888696   -4.4786287 
