48
Energy =
C    -1.5492685   -2.3731128   -2.5353657 
C    -0.3324864   -2.8858139   -2.2212490 
C    -1.8768968   -2.1364976   -3.8338491 
C    -0.9845647   -2.4157350   -4.8101948 
C     0.2325637   -2.9280557   -4.5022437 
C     0.5684871   -3.1652964   -3.2033228 
H    -0.0842168   -3.0683100   -1.1790490 
H    -1.2561871   -2.2222800   -5.8421221 
H     0.9388365   -3.1399675   -5.3017323 
H    -2.2594040   -2.1523160   -1.7454960 
C     1.9341322   -3.7232086   -2.8563339 
C     3.0116809   -2.6331979   -2.6394430 
H     2.2733342   -4.4009682   -3.6728040 
H     1.8650084   -4.3633572   -1.9498915 
C     3.1989675   -1.7499684   -3.8645914 
O    -3.1205196   -1.6076207   -4.1912292 
H    -3.7319666   -1.4217189   -3.4036632 
O     3.8195717   -2.2682670   -4.9945782 
N     2.7508281   -1.8530459   -1.4167048 
H     3.9871986   -3.1537432   -2.5092522 
H     1.8622173   -1.3093722   -1.5244861 
H     2.6265559   -2.5015480   -0.6046715 
N     2.6032936   -0.4470044   -3.9452130 
C     3.4242274    0.7690413   -3.6663460 
H     1.6735733   -0.4407161   -4.4066902 
C     3.0503653    2.0081815   -4.5207556 
O     3.8554421    3.1358229   -4.4356120 
O     1.9343132    2.1182321   -5.3537216 
H     1.3205662    1.3300113   -5.3508165 
C     4.9595609    0.4774323   -3.7639451 
H     3.1976855    1.0740853   -2.6213213 
C     5.8093440    1.4993618   -3.0331310 
H     5.2495342    0.3982376   -4.8363584 
H     5.2286531   -0.4984899   -3.3129344 
C     6.0014736    1.5688616   -1.7060244 
C     5.5070841    0.7836665   -0.7143045 
C     5.8569943    1.0685700    0.5726179 
C     6.6861736    2.1211902    0.8462625 
C     7.1706055    2.8954777   -0.1660990 
C     6.8101884    2.5929983   -1.4309796 
H     4.8455944   -0.0511776   -0.9285541 
H     5.4726272    0.4564683    1.3848842 
H     6.9588579    2.3429796    1.8749526 
H     7.8274535    3.7352607    0.0337295 
N     7.1986465    3.2663676   -2.6193705 
C     6.5037196    2.4966199   -3.6116921 
H     7.8308345    4.0910486   -2.7371549 
H     6.4876991    2.7303398   -4.6759914 
