48
Energy =
C     2.8804046   -1.6582302    4.6669128 
C     2.9009277   -1.0364150    3.4607246 
C     3.5049318   -2.8552831    4.8295804 
C     4.1460375   -3.4221573    3.7823393 
C     4.1696941   -2.8049899    2.5739706 
C     3.5497334   -1.6046503    2.4071866 
H     2.3946484   -0.0809263    3.3440614 
H     4.6390380   -4.3774535    3.9244375 
H     4.6861713   -3.2791568    1.7436769 
H     2.3621957   -1.1963377    5.5002661 
C     3.5548915   -0.9193013    1.0589722 
C     2.2371550   -1.1655384    0.2846104 
H     4.4307384   -1.2532880    0.4636665 
H     3.7019189    0.1753905    1.2158995 
C     2.0656967   -0.1774308   -0.8600041 
O     3.5013237   -3.5234755    6.0585144 
H     3.0042084   -3.0314539    6.7928099 
O     1.3842560    1.0108177   -0.6173311 
N     2.1413163   -2.5634166   -0.1714058 
H     1.3768683   -0.9491025    0.9628805 
H     3.0161303   -2.8490635   -0.6683088 
H     2.0359671   -3.1936044    0.6585177 
N     2.4402471   -0.4869110   -2.2147391 
C     3.9066713   -0.4238766   -2.4269710 
H     1.9522228    0.2189540   -2.8086388 
C     4.5968508    0.8416189   -1.9009951 
O     5.8284201    0.7076423   -1.2725741 
O     4.0805869    2.1253669   -2.0693418 
H     3.1740169    2.1222391   -2.5092972 
C     4.2451159   -0.7177020   -3.9077420 
H     4.3680187   -1.2585463   -1.8567395 
C     3.7413240    0.3349260   -4.8728385 
H     3.8071949   -1.7036684   -4.1830434 
H     5.3457237   -0.8331740   -4.0249915 
C     4.3738733    1.4574702   -5.2521784 
C     5.5946235    1.9347019   -4.8962429 
C     6.0066124    3.1222263   -5.4255400 
C     5.2045277    3.8057917   -6.2968822 
C     3.9843696    3.3060057   -6.6427954 
C     3.5983182    2.1305677   -6.1036693 
H     6.2316045    1.4006190   -4.1971336 
H     6.9752786    3.5299530   -5.1466945 
H     5.5390367    4.7532024   -6.7115767 
H     3.3345290    3.8361765   -7.3303670 
N     2.3750980    1.4446581   -6.3273076 
C     2.5504687    0.2905110   -5.4958699 
H     1.5682138    1.7141207   -6.9355036 
H     1.8184656   -0.5077094   -5.3852211 
