48
Energy =
C    -3.8278426    1.0336982   -1.6236625 
C    -2.7005854    1.6643880   -1.2073751 
C    -3.9598038    0.6564165   -2.9238448 
C    -2.9625041    0.9161220   -3.7995814 
C    -1.8341967    1.5469875   -3.3887445 
C    -1.6969162    1.9256123   -2.0891379 
H    -2.6055622    1.9522883   -0.1637181 
H    -3.0793303    0.6114785   -4.8333191 
H    -1.0416521    1.7475273   -4.1048007 
H    -4.6211891    0.8288967   -0.9132573 
C    -0.4221261    2.5962712   -1.6307104 
C     0.7042892    1.5710556   -1.3512916 
H    -0.5946646    3.2253258   -0.7312994 
H    -0.0857498    3.3033516   -2.4238608 
C     2.0718793    2.2258644   -1.2513059 
O    -5.1059878   -0.0000185   -3.3847564 
H    -5.8093097   -0.1494445   -2.6695785 
O     2.1911299    3.4609468   -1.2834948 
N     0.4183692    0.7952429   -0.1342772 
H     0.7739005    0.8775588   -2.2176198 
H     0.2474020    1.4455032    0.6683734 
H    -0.4471884    0.2253717   -0.2777662 
N     3.2583688    1.4165419   -1.3137224 
C     4.3654987    2.0169123   -2.0775363 
H     3.2880947    0.4738354   -0.8643860 
C     4.0762495    3.4912812   -2.3550904 
O     4.8580022    4.2041954   -3.2600883 
O     3.1307261    4.0509751   -1.7810288 
H     2.9797160    3.8619241   -0.8107533 
C     4.6104916    1.2035059   -3.3667731 
H     5.2865190    1.9975700   -1.4567422 
C     3.3809752    1.1273797   -4.2513750 
H     4.9545727    0.1839028   -3.0951509 
H     5.4441713    1.6655206   -3.9425975 
C     2.4843869    0.1284576   -4.3076002 
C     2.4356161   -1.0416546   -3.6187490 
C     1.3850257   -1.8823309   -3.8413036 
C     0.4104414   -1.5476758   -4.7397432 
C     0.4802772   -0.3696648   -5.4211069 
C     1.5278551    0.4467570   -5.1822042 
H     3.1983733   -1.3057666   -2.8936475 
H     1.3195064   -2.8212469   -3.2968437 
H    -0.4258241   -2.2217258   -4.9082703 
H    -0.2877023   -0.0864472   -6.1326639 
N     1.7652653    1.7241691   -5.7546377 
C     2.9810380    2.0999374   -5.0910219 
H     1.2067086    2.2496277   -6.4659052 
H     3.4899597    3.0550438   -5.2243907 
