48
 energy: -9.356178922850 gnorm: 0.000654368712 xtb: 6.6.0 (2ccbbd7)
C            7.64282740742333        2.51160621045138        0.58687089296888
C            6.39758863193041        3.09318287180566        0.61058963752842
C            7.80665536037455        1.16859060612106        0.92536216547836
C            6.67362521311928        0.43801986231066        1.27792324567248
C            5.43383862377331        1.02845915263865        1.29549446404126
C            5.26976848240437        2.36973563702655        0.97102674514113
H            6.27954143259182        4.12131387859564        0.31337404653383
H            6.79355590395481       -0.60239957970884        1.52227842176351
H            4.57254377594954        0.42971878576921        1.53177426478473
H            8.50346360737674        3.08601979730489        0.29426961250146
C            3.92742607342243        3.04287794233751        0.91687827479799
C            2.76563165420997        2.28314841470839        1.55212201522175
H            3.54593037104043        3.18243697080174       -0.22933389373538
H            4.01065082415253        4.03996333361395        1.35787161179176
C            2.45424766884778        1.02382648188324        0.76640707819608
O            9.04350422724512        0.55275465162336        0.91716576305850
H            9.72974970470090        1.18273173241402        0.60871540195571
O            2.17943552455600        0.02080854143063        1.39649007195450
N            2.96905620718398        1.98444062144414        2.96071385971943
H            1.86156185201974        2.91313745888427        1.50073445812003
H            2.30789037599293        1.25505940884354        3.21536282662677
H            3.88824603378966        1.59462899967652        3.10744578280522
N            2.45890435678837        1.07194175970110       -0.65193517143404
C            3.70110432379720        0.79443942702205       -1.43201088746730
H            1.73427202037532        0.50656479055636       -1.09291801328971
C            4.44315601196669        2.04882899692930       -1.83971468392445
O            5.35171888087820        1.95433108042826       -2.63514566468458
O            4.05974866827893        3.29376625906892       -1.21669767596296
H            2.98140540574364        3.48227799687305       -1.13089801548979
C            3.44512168005508       -0.10382496850959       -2.66861641582633
H            4.37720701027366        0.24594351205618       -0.76243529782851
C            4.03215877176397       -1.47294201856210       -2.54937460822889
H            3.88213266759191        0.38620299528422       -3.54675808304516
H            2.37453939144371       -0.17957716378134       -2.88109152880021
C            3.95019379261417       -2.36071477832888       -1.43424497579108
C            3.36751033792633       -2.25620124660408       -0.16073342804768
C            3.47870007457618       -3.30522101278028        0.70717748242001
C            4.16054630215551       -4.47745007390518        0.34453880477610
C            4.73798472020556       -4.60543746635648       -0.88876334771049
C            4.63500688685077       -3.53887546835885       -1.79083004354863
H            2.86548392839928       -1.35299742854689        0.13084381660726
H            3.03883555807176       -3.22948513304567        1.68785479088311
H            4.23147620656109       -5.28689160644882        1.05207275900920
H            5.26549316550202       -5.49749891221254       -1.17506694938232
N            5.10913114747346       -3.37091079054891       -3.07904114435208
C            4.74167419822599       -2.12691343567194       -3.52664208366586
H            5.65208792346966       -4.06540266132404       -3.59537609334924
H            4.97976477566009       -1.72724351929007       -4.49931502036226
