48
Energy =
C     7.0594468   -1.7905570    0.0556464 
C     5.8825230   -1.7551913    0.7301565 
C     7.8792467   -0.7069611    0.0520879 
C     7.5200766    0.4029509    0.7354533 
C     6.3416293    0.4461398    1.4101601 
C     5.5103138   -0.6318791    1.4036902 
H     5.2362599   -2.6290548    0.7177127 
H     8.1782581    1.2657717    0.7154938 
H     6.0612585    1.3598793    1.9325132 
H     7.3428482   -2.6855601   -0.4856966 
C     4.1753626   -0.5742076    2.1174206 
C     3.0137334   -0.0475814    1.2343916 
H     4.2679129    0.0737865    3.0198681 
H     3.9145288   -1.5830809    2.5056443 
C     3.2154978    1.4040430    0.7983679 
O     9.0914595   -0.7097310   -0.6459435 
H     9.2487507   -1.5489116   -1.1914428 
O     3.3206831    2.3772177    1.7823410 
N     2.7422440   -0.9626901    0.1097329 
H     2.1013225   -0.0068440    1.8745718 
H     3.5897958   -1.0569345   -0.4949273 
H     2.5268985   -1.9174490    0.4833842 
N     3.0779700    1.8287198   -0.5711752 
C     4.3827991    1.7749301   -1.2724233 
H     2.3510608    1.2224953   -1.0137982 
C     5.1900458    3.0453200   -1.0175575 
O     6.5271936    2.9410834   -0.6577670 
O     4.6585471    4.3135179   -1.2484764 
H     3.6568873    4.2723545   -1.3724941 
C     4.1691034    1.5587433   -2.7896862 
H     5.0090076    0.9317293   -0.8999809 
C     5.4856082    1.2609520   -3.4766166 
H     3.6982044    2.4609980   -3.2422457 
H     3.4687623    0.7145654   -2.9699221 
C     6.0847788    0.0627566   -3.5775862 
C     5.6549090   -1.1632585   -3.1799443 
C     6.4730639   -2.2348705   -3.3845710 
C     7.6987940   -2.0667874   -3.9666819 
C     8.1122725   -0.8251130   -4.3506226 
C     7.2806447    0.2180869   -4.1469912 
H     4.6857341   -1.3004539   -2.7129894 
H     6.1480518   -3.2278063   -3.0822622 
H     8.3468898   -2.9256199   -4.1254420 
H     9.0842711   -0.6706962   -4.8061414 
N     7.5246586    1.5842128   -4.4529838 
C     6.3168320    2.1936467   -3.9751480 
H     8.3551576    2.0213789   -4.9143762 
H     6.1358275    3.2686578   -3.9445877 
