48
Energy =
C    -2.5965702   -1.2704140   -3.1793011 
C    -1.8955089   -1.6252242   -2.0681442 
C    -2.1557980   -0.2530697   -3.9731208 
C    -1.0235224    0.4089174   -3.6435620 
C    -0.3326929    0.0464986   -2.5381788 
C    -0.7445801   -0.9717601   -1.7534306 
H    -2.2616187   -2.4325547   -1.4389674 
H    -0.6743404    1.2222248   -4.2714903 
H     0.6846516    0.5052762   -2.1906355 
H    -3.5084781   -1.8013688   -3.4310897 
C     0.0593610   -1.3057807   -0.5051045 
C     1.6029649   -1.3417570   -0.7385700 
H    -0.2650829   -2.2959329   -0.1147784 
H    -0.1798188   -0.5593436    0.2846675 
C     2.2479504    0.0430136   -0.9995160 
O    -2.8392717    0.1232947   -5.1328832 
H    -3.7005581   -0.3900256   -5.2890671 
O     1.6370733    0.9491941   -1.8729409 
N     2.2398123   -2.0217164    0.4031614 
H     1.7981507   -1.9362894   -1.6605680 
H     1.9308052   -1.5814749    1.3049274 
H     1.9370843   -3.0252761    0.4338034 
N     3.6366430    0.2529264   -0.6745860 
C     4.4391604    1.2781553   -1.3751746 
H     4.0650819   -0.3540228    0.0616358 
C     3.7668006    2.6416524   -1.4210342 
O     3.8372507    3.4573543   -0.3026346 
O     3.1238024    3.1265311   -2.5497525 
H     3.0525359    2.3806575   -3.4361315 
C     4.9335246    0.7482537   -2.7382752 
H     5.3478599    1.4650614   -0.7522663 
C     3.7831180    0.4426983   -3.6914294 
H     5.5701054   -0.1537653   -2.5548350 
H     5.6255352    1.4864350   -3.2078374 
C     3.3657356   -0.7848844   -4.0270308 
C     3.7896108   -1.9991946   -3.5804853 
C     3.1750226   -3.1201143   -4.0529913 
C     2.1551975   -3.0158343   -4.9531304 
C     1.7510073   -1.7907570   -5.3861029 
C     2.3826679   -0.6963094   -4.9061437 
H     4.5788931   -2.1018568   -2.8446124 
H     3.4919485   -4.1010587   -3.7050517 
H     1.6633910   -3.9125712   -5.3236810 
H     0.9366565   -1.6937235   -6.0987727 
N     2.0880839    0.6438650   -5.2432141 
C     2.9627477    1.5103544   -4.4434956 
H     1.3842224    0.9818365   -5.9349327 
H     2.0669523    2.1805002   -4.4606920 
