48
Energy =
C     3.9242202   -5.0186783   -4.8898724 
C     2.9318175   -4.1222259   -5.1203983 
C     5.1963443   -4.5894222   -4.6726817 
C     5.4654215   -3.2639714   -4.6850959 
C     4.4773712   -2.3638835   -4.9171777 
C     3.2029275   -2.7881069   -5.1385660 
H     1.9188700   -4.4777093   -5.2843870 
H     6.4810341   -2.9316215   -4.5016815 
H     4.7134858   -1.3032216   -4.9146275 
H     3.6976161   -6.0788754   -4.8764296 
C     2.0945101   -1.7839044   -5.3721393 
C     1.1869548   -1.5913901   -4.1310807 
H     1.4764810   -2.1268906   -6.2305848 
H     2.5271584   -0.8095742   -5.6861425 
C     1.9648633   -1.2690077   -2.8464299 
O     6.2432158   -5.4881324   -4.4388064 
H     5.9550073   -6.4597835   -4.4148996 
O     2.5960387   -2.3297802   -2.2060162 
N     0.1366318   -0.6023933   -4.4365548 
H     0.6933695   -2.5665248   -3.9078801 
H     0.5558340    0.2523182   -4.8792783 
H    -0.5143624   -1.0056153   -5.1509411 
N     1.7096382   -0.0902390   -2.0550427 
C     2.6921436    0.9972423   -2.2708029 
H     0.7270207    0.2304548   -2.1997383 
C     2.5822085    1.6317012   -3.6570977 
O     3.4426329    1.2609393   -4.6821613 
O     1.5486007    2.5206754   -3.9586137 
H     0.9918120    2.7480775   -3.1473669 
C     4.1217065    0.5171896   -1.9156734 
H     2.4377759    1.8041533   -1.5488903 
C     5.0681164    1.6747878   -1.6753121 
H     4.5140752   -0.1559495   -2.7047227 
H     4.0774859   -0.0987192   -0.9885044 
C     6.0436431    2.1181463   -2.4869295 
C     6.4543228    1.6585261   -3.6974338 
C     7.4853595    2.2980054   -4.3199797 
C     8.0881596    3.3739494   -3.7301451 
C     7.6630304    3.8168527   -2.5132781 
C     6.6397128    3.1685220   -1.9179554 
H     5.9817403    0.8052927   -4.1714503 
H     7.8269968    1.9495866   -5.2914515 
H     8.9090227    3.8780299   -4.2336535 
H     8.1306555    4.6680243   -2.0306695 
N     6.0545238    3.4669083   -0.6584992 
C     5.0465470    2.4523873   -0.5779309 
H     6.2943986    4.2228164    0.0226269 
H     4.3628330    2.3326982    0.2589962 
