48
Energy =
C     1.8979376   -2.7331512   -8.2545671 
C     2.3146798   -1.8015154   -7.3599927 
C     1.4701093   -3.9501656   -7.8248120 
C     1.4601650   -4.2256288   -6.5008609 
C     1.8752583   -3.2976625   -5.6016746 
C     2.3128562   -2.0812474   -6.0278466 
H     2.6443269   -0.8296002   -7.7178186 
H     1.1127999   -5.1984592   -6.1712946 
H     1.8534656   -3.5360246   -4.5412421 
H     1.9043321   -2.5008204   -9.3137366 
C     2.7543491   -1.0383916   -5.0262164 
C     1.5640863   -0.1849403   -4.5441188 
H     3.5376980   -0.3911849   -5.4776571 
H     3.2379274   -1.5451287   -4.1590690 
C     1.8943577    0.5628505   -3.2563159 
O     1.0340674   -4.9325537   -8.7201546 
H     1.0707735   -4.6477786   -9.6926885 
O     1.8697186   -0.1266484   -2.0511085 
N     1.1264477    0.6988106   -5.6406860 
H     0.7253297   -0.8702099   -4.2683104 
H     1.8795443    1.3921291   -5.8784702 
H     0.2779951    1.2371914   -5.3486224 
N     2.2004398    1.9642268   -3.2480404 
C     3.5667826    2.4328088   -2.9019076 
H     1.5022750    2.6170319   -3.6699302 
C     3.9258175    3.6711781   -3.7156699 
O     4.3246846    4.8315952   -3.0580364 
O     3.8587492    3.6687592   -5.1159871 
H     3.6153409    2.7644567   -5.5013488 
C     4.6557778    1.3359658   -3.0503372 
H     3.5478580    2.7528313   -1.8364910 
C     6.0039247    1.8120202   -2.5523732 
H     4.7356145    1.0127717   -4.1070545 
H     4.3790807    0.4405460   -2.4514032 
C     6.9854146    2.3736656   -3.2774810 
C     7.0467589    2.6388040   -4.6081051 
C     8.1709252    3.2346116   -5.0997057 
C     9.2061650    3.5520733   -4.2644731 
C     9.1224308    3.2772795   -2.9317583 
C     7.9999378    2.6876124   -2.4693956 
H     6.2220004    2.3980473   -5.2730777 
H     8.2391809    3.4654456   -6.1604205 
H    10.0966076    4.0317329   -4.6634075 
H     9.9312876    3.5285540   -2.2541556 
N     7.7092499    2.3319917   -1.1248681 
C     6.3948491    1.7776430   -1.2659617 
H     8.2983050    2.4405977   -0.2673770 
H     5.7954973    1.3972224   -0.4411350 
