48
Energy =
C    -2.6277243    0.3572533   -4.4613069 
C    -2.1512108    0.5835552   -3.2078920 
C    -1.8115529    0.5038502   -5.5429600 
C    -0.5242153    0.8796030   -5.3623241 
C    -0.0569292    1.1035225   -4.1105418 
C    -0.8520979    0.9463562   -3.0277001 
H    -2.8170750    0.4753920   -2.3560868 
H     0.1239257    0.9991546   -6.2232644 
H     1.0448935    1.4113901   -3.8361462 
H    -3.6628859    0.0634269   -4.5969018 
C    -0.2976924    1.2626377   -1.6456112 
C     1.1647185    0.7656490   -1.4134404 
H    -0.9574186    0.8056969   -0.8758527 
H    -0.3386668    2.3645518   -1.4959560 
C     2.2220157    1.5634210   -2.2123748 
O    -2.2704681    0.2739601   -6.8439980 
H    -3.2476655    0.0089939   -6.8945476 
O     2.0785355    1.7019512   -3.5954782 
N     1.4487674    0.7684850    0.0335768 
H     1.2520694   -0.2800370   -1.7923512 
H     1.2013069    1.7015302    0.4438273 
H     0.8487944    0.0542128    0.5111442 
N     3.4613628    1.9571970   -1.5935505 
C     4.7447636    1.9646913   -2.3312609 
H     3.4593039    2.1253084   -0.5640682 
C     5.0565173    3.3481123   -2.9023699 
O     4.0378169    4.1623958   -3.3781926 
O     6.3721808    3.8067925   -3.0132115 
H     7.0439228    3.1493589   -2.6458617 
C     4.8188216    0.8579493   -3.4117579 
H     5.5380013    1.7552204   -1.5797515 
C     6.2457885    0.5625883   -3.8149891 
H     4.2414245    1.1713329   -4.3120609 
H     4.3329581   -0.0688801   -3.0409205 
C     7.1006888   -0.2624306   -3.1913477 
C     6.9129241   -1.0455894   -2.0982385 
C     7.9627464   -1.7912997   -1.6483188 
C     9.1709573   -1.7398822   -2.2873025 
C     9.3372185   -0.9408404   -3.3795359 
C     8.2826311   -0.2156374   -3.8073125 
H     5.9568572   -1.0820825   -1.5844409 
H     7.8394035   -2.4278311   -0.7753161 
H    10.0036032   -2.3352977   -1.9210057 
H    10.2906820   -0.8828974   -3.8936656 
N     8.2485091    0.6891643   -4.9016257 
C     6.8945469    1.1567146   -4.8324850 
H     9.0065012    0.9445609   -5.5756409 
H     6.4711818    1.9242864   -5.4813952 
