48
Energy =
C     0.4225024    4.7983411   -1.7867046 
C     0.8688047    4.4674190   -0.5482692 
C    -0.0435363    3.8349722   -2.6261607 
C    -0.0572775    2.5458864   -2.2197006 
C     0.3924637    2.2080764   -0.9852339 
C     0.8591617    3.1688905   -0.1397883 
H     1.2387436    5.2483890    0.1109460 
H    -0.4293511    1.7880406   -2.8980724 
H     0.3887223    1.1626196   -0.6849409 
H     0.4394214    5.8352066   -2.1042637 
C     1.3849425    2.7888768    1.2293457 
C     2.9103294    2.5209494    1.2608005 
H     0.8571953    1.8753948    1.5864548 
H     1.1292546    3.5822461    1.9653429 
C     3.3468027    1.4885711    0.2342829 
O    -0.5151393    4.1410937   -3.9074348 
H    -0.4378568    5.1226990   -4.1509876 
O     3.1531860    0.1370482    0.4990818 
N     3.6761943    3.7754315    1.1513969 
H     3.1520307    2.0566898    2.2457470 
H     3.5513079    4.2079380    0.2043413 
H     3.3460105    4.4670460    1.8642820 
N     3.7475636    1.8859565   -1.0807689 
C     5.0927337    1.4930079   -1.5280601 
H     3.1002556    2.4457571   -1.6798018 
C     5.7967017    2.6392433   -2.2416988 
O     5.0537417    3.6279867   -2.8753764 
O     7.1849033    2.6712068   -2.3674419 
H     7.6353071    1.9112883   -1.8802006 
C     4.9864790    0.2427655   -2.4276645 
H     5.7316939    1.2501626   -0.6478035 
C     3.9854175    0.4208721   -3.5543153 
H     4.7041225   -0.6269638   -1.7965663 
H     5.9819979   -0.0024327   -2.8597823 
C     2.7224508   -0.0390089   -3.5972715 
C     2.0290897   -0.7802029   -2.6935448 
C     0.7406580   -1.1201583   -2.9838601 
C     0.1669164   -0.7153041   -4.1568516 
C     0.8765562    0.0382197   -5.0436921 
C     2.1509208    0.3581267   -4.7359910 
H     2.4745296   -1.0987732   -1.7563025 
H     0.1678655   -1.7159041   -2.2771326 
H    -0.8609750   -0.9892564   -4.3813193 
H     0.4334983    0.3778846   -5.9740122 
N     3.0490555    1.1363544   -5.5126307 
C     4.2125037    1.1337808   -4.6727397 
H     2.9029120    1.5777749   -6.4499135 
H     5.1299903    1.6847137   -4.8842682 
