48
Energy =
C     0.1408916   -0.5772705    3.5249789 
C     0.8665279    0.2850281    2.7665582 
C    -1.2158628   -0.4956500    3.5428380 
C    -1.8380467    0.4492773    2.8025451 
C    -1.1178778    1.3125722    2.0424587 
C     0.2417394    1.2353258    2.0178804 
H     1.9526894    0.2103925    2.7593810 
H    -2.9210025    0.5045632    2.8260454 
H    -1.6380229    2.0625537    1.4523430 
H     0.6473159   -1.3333713    4.1158254 
C     1.0452496    2.1932675    1.1581318 
C     1.3964480    1.6393431   -0.2481286 
H     1.9861413    2.4736695    1.6843110 
H     0.4861308    3.1466324    1.0344153 
C     2.4380560    0.5296160   -0.2283139 
O    -1.9921545   -1.3688652    4.3109138 
H    -1.4529198   -2.0459285    4.8393090 
O     3.3017479    0.3846886    0.8532165 
N     0.1830826    1.2314705   -0.9786269 
H     1.8824816    2.4649002   -0.8184129 
H    -0.2779811    0.4280556   -0.4906360 
H    -0.4965844    2.0272414   -1.0005211 
N     2.7581348   -0.1572821   -1.4397289 
C     4.0774355    0.1398972   -2.0282832 
H     2.0841180   -0.8614455   -1.8104613 
C     4.1017420    1.4938734   -2.7224787 
O     5.2795301    2.2302543   -2.7068832 
O     3.0110578    1.9931251   -3.4365594 
H     2.2081579    1.3839193   -3.3694828 
C     4.4798287   -0.9840795   -3.0061225 
H     4.8430143    0.2150714   -1.2177565 
C     4.7410492   -2.2822908   -2.2759386 
H     5.3996236   -0.6940568   -3.5633373 
H     3.6810532   -1.1231427   -3.7685961 
C     5.8464344   -2.6054585   -1.5869934 
C     6.9871394   -1.8956349   -1.3893172 
C     7.9752631   -2.4554620   -0.6340354 
C     7.8104932   -3.7012191   -0.0940515 
C     6.6558350   -4.3948093   -0.3058982 
C     5.6932350   -3.8199359   -1.0570747 
H     7.1192349   -0.9048039   -1.8153373 
H     8.8976249   -1.9066814   -0.4585624 
H     8.6021637   -4.1392644    0.5085629 
H     6.5080707   -5.3823472    0.1175375 
N     4.4237328   -4.3641473   -1.3909441 
C     3.8681860   -3.2999591   -2.1770880 
H     4.0148527   -5.2914849   -1.1323823 
H     2.8742460   -3.3112441   -2.6189278 
