48
Energy =
C    -0.0161953    2.5349988    3.2757976 
C     0.6879487    2.9571487    2.1952466 
C     0.3753827    1.4246296    3.9556689 
C     1.4704666    0.7442064    3.5482600 
C     2.1789802    1.1626694    2.4691239 
C     1.7921129    2.2732239    1.7838165 
H     0.3591167    3.8450976    1.6621785 
H     1.7723635   -0.1409317    4.0972517 
H     3.0550130    0.6014678    2.1638403 
H    -0.8934409    3.0874416    3.5943541 
C     2.5677686    2.7374198    0.5671176 
C     2.1508443    2.0217023   -0.7452189 
H     3.6596798    2.5992614    0.7405443 
H     2.4389270    3.8344880    0.4340610 
C     2.5947623    0.5614022   -0.7903375 
O    -0.3274489    0.9634726    5.0738747 
H    -1.1365280    1.5262500    5.3118069 
O     1.6537193   -0.4616308   -0.7199692 
N     0.7046745    2.1791820   -0.9985059 
H     2.6940588    2.5017710   -1.5881750 
H     0.1539927    1.6350498   -0.2903526 
H     0.4315481    3.1854247   -0.9068081 
N     3.9805037    0.2076606   -0.6850859 
C     4.8668999    0.2048972   -1.8683978 
H     4.3542699   -0.0279301    0.2598094 
C     5.6558594    1.5051703   -2.0114105 
O     5.0534922    2.7267187   -1.7405874 
O     6.9746158    1.5085250   -2.4688636 
H     7.3337870    0.5769595   -2.6168119 
C     4.1660137   -0.2743727   -3.1724872 
H     5.6313533   -0.5749814   -1.6571420 
C     3.3197851    0.7655206   -3.8882224 
H     3.5406744   -1.1640505   -2.9330861 
H     4.9399034   -0.6396285   -3.8826240 
C     3.7480860    1.7410125   -4.7108235 
C     5.0049204    2.0494930   -5.1235452 
C     5.1698418    3.0962571   -5.9819151 
C     4.0874060    3.8043236   -6.4237324 
C     2.8328640    3.4670698   -6.0124107 
C     2.6965713    2.4321811   -5.1569957 
H     5.8678897    1.4843757   -4.7887069 
H     6.1688901    3.3684451   -6.3147737 
H     4.2276637    4.6370892   -7.1085325 
H     1.9620638    4.0116023   -6.3616740 
N     1.4847296    1.9065358   -4.6389647 
C     1.9746943    0.8187415   -3.8461113 
H     0.4984111    2.2167834   -4.7972004 
H     1.3357857    0.1279271   -3.2992297 
