48
Energy =
C     1.0999369    4.8651106   -2.7037378 
C     0.6362452    3.6212710   -2.9877975 
C     0.8685278    5.4175278   -1.4842097 
C     0.1769224    4.7199576   -0.5546058 
C    -0.2787504    3.4711977   -0.8286548 
C    -0.0478657    2.9106174   -2.0475748 
H     0.8412927    3.1822484   -3.9643577 
H    -0.0009598    5.1729896    0.4147736 
H    -0.8241374    2.9244413   -0.0639351 
H     1.6643192    5.4145147   -3.4496105 
C    -0.5343797    1.5062187   -2.3527442 
C     0.5628810    0.4185288   -2.2334147 
H    -0.9430192    1.4856240   -3.3889216 
H    -1.3854358    1.2379761   -1.6894389 
C     1.7370740    0.6632666   -3.1749882 
O     1.3299596    6.6968419   -1.1591936 
H     1.8709765    7.1447060   -1.8914344 
O     1.4812071    0.4894458   -4.5313173 
N     0.9733195    0.2132206   -0.8320710 
H     0.1215160   -0.5359136   -2.6064880 
H     1.1334630    1.1277426   -0.3505453 
H     0.1936015   -0.2553205   -0.3135688 
N     2.8319892    1.5232434   -2.8081456 
C     4.2134264    1.0595743   -3.1261959 
H     2.7719255    1.7286556   -1.7871029 
C     4.9698932    2.1766977   -3.8261240 
O     6.2396585    2.5190735   -3.3781119 
O     4.4492117    2.8302064   -4.9433494 
H     3.5293296    2.4756960   -5.1709969 
C     4.3314675   -0.2487231   -3.9633272 
H     4.7679595    0.9054447   -2.1728194 
C     3.9382201   -1.4928966   -3.1933557 
H     5.3884702   -0.3810524   -4.2868860 
H     3.7520503   -0.1579761   -4.9081578 
C     4.6225687   -2.0673097   -2.1909463 
C     5.8065991   -1.7115633   -1.6274947 
C     6.2986083   -2.4797821   -0.6138215 
C     5.6127065   -3.5832000   -0.1874935 
C     4.4320006   -3.9277081   -0.7753260 
C     3.9638475   -3.1503602   -1.7740331 
H     6.3636412   -0.8449223   -1.9729450 
H     7.2439876   -2.2155137   -0.1454853 
H     6.0132259   -4.1916060    0.6195158 
H     3.8799669   -4.8046988   -0.4548415 
N     2.7760582   -3.3459546   -2.5277430 
C     2.8395504   -2.2328905   -3.4307228 
H     2.0566058   -4.1005839   -2.4462074 
H     2.1009339   -2.0194116   -4.2026138 
