48
Energy =
C     0.3874895   -1.6997507   -4.9296526 
C     0.6379270   -1.2980256   -3.6578982 
C    -0.8851880   -1.6995914   -5.4085609 
C    -1.8986461   -1.2937266   -4.6114476 
C    -1.6541258   -0.8878201   -3.3404329 
C    -0.3821632   -0.8887283   -2.8537104 
H     1.6613780   -1.3002278   -3.2930743 
H    -2.9080020   -1.2947989   -5.0061413 
H    -2.4826228   -0.5596206   -2.7192850 
H     1.2083281   -2.0182002   -5.5629258 
C    -0.1018602   -0.4234606   -1.4389134 
C     0.3098967    1.0693460   -1.3575060 
H     0.6953969   -1.0595391   -0.9962338 
H    -0.9972294   -0.5938632   -0.8007456 
C     1.5913791    1.3662739   -2.1346904 
O    -1.1789575   -2.1124861   -6.7124856 
H    -0.3608035   -2.3702819   -7.2532964 
O     1.5224704    2.0850563   -3.3225073 
N    -0.8056867    1.9418086   -1.7627602 
H     0.5512208    1.3045120   -0.2965110 
H    -0.9913750    1.8310699   -2.7890627 
H    -1.6804384    1.6725545   -1.2558540 
N     2.8530293    0.8641673   -1.6319790 
C     4.1848209    1.2649740   -2.1563288 
H     2.8023337    0.1197942   -0.9006831 
C     4.1827735    2.1564932   -3.4091160 
O     4.2060064    1.5788164   -4.6764808 
O     4.2052498    3.5492051   -3.3080006 
H     4.0139724    3.8590793   -2.3673523 
C     5.0208626   -0.0182392   -2.3717877 
H     4.6871728    1.8617919   -1.3634356 
C     6.4782061    0.2930707   -2.6404922 
H     4.5899546   -0.6034271   -3.2166872 
H     4.9568650   -0.6747081   -1.4771695 
C     7.4174237    0.5831300   -1.7264607 
C     7.3242038    0.6467037   -0.3732538 
C     8.4404942    0.9761344    0.3380423 
C     9.6185026    1.2361478   -0.3063514 
C     9.6872359    1.1685709   -1.6664031 
C     8.5699241    0.8383092   -2.3473534 
H     6.3889623    0.4439979    0.1395141 
H     8.3933625    1.0342876    1.4227725 
H    10.5033444    1.5003985    0.2673211 
H    10.6122447    1.3762721   -2.1935272 
N     8.4237253    0.7253338   -3.7555314 
C     7.0368151    0.3749604   -3.8614118 
H     9.1367271    0.8556465   -4.5094673 
H     6.5073309    0.2283803   -4.8022205 
