48
Energy =
C     1.2324570   -2.3060889    3.3747608 
C     0.4146624   -1.3336769    2.8984466 
C     2.5495346   -2.0470711    3.5896671 
C     3.0423378   -0.8183862    3.3138522 
C     2.2292466    0.1580692    2.8395502 
C     0.9058165   -0.0907748    2.6338542 
H    -0.6369664   -1.5549986    2.7367554 
H     4.0945302   -0.6219737    3.4849102 
H     2.6439585    1.1422783    2.6390275 
H     0.8290551   -3.2901538    3.5874099 
C    -0.0159388    1.0024769    2.1274559 
C    -0.0090219    1.1667345    0.5866191 
H     0.2700550    1.9710433    2.5985549 
H    -1.0575628    0.8091204    2.4645574 
C     1.3163014    1.7012491    0.0594123 
O     3.4155359   -3.0253174    4.0907658 
H     2.9573073   -3.9000389    4.3217161 
O     1.9183559    2.7618972    0.7278705 
N    -0.4176799   -0.0817645   -0.0815103 
H    -0.7504772    1.9572940    0.3318032 
H     0.2824314   -0.8346628    0.1158337 
H    -1.3389632   -0.3983866    0.3009425 
N     1.7010935    1.4598713   -1.3003609 
C     3.1472354    1.3966275   -1.5851383 
H     0.9607315    1.3045157   -2.0201496 
C     3.6532155    2.6339232   -2.3178340 
O     4.9504120    3.0657631   -2.0643314 
O     2.9301068    3.2622367   -3.3336336 
H     2.0040458    2.8787025   -3.4287348 
C     3.4553393    0.1214030   -2.3931074 
H     3.7281437    1.3769782   -0.6334911 
C     3.2336511   -1.1209574   -1.5637963 
H     4.5095575    0.1366530   -2.7507830 
H     2.8156632    0.0926358   -3.3037280 
C     4.0364338   -1.5917982   -0.5978101 
C     5.2232495   -1.1132904   -0.1432030 
C     5.8447932   -1.7817917    0.8713650 
C     5.2776036   -2.9057726    1.4051012 
C     4.0866951   -3.3680200    0.9291009 
C     3.4894025   -2.6872063   -0.0700084 
H     5.6711204   -0.2186536   -0.5695161 
H     6.7934435   -1.4191662    1.2625040 
H     5.7677405   -3.4275400    2.2245614 
H     3.6196027   -4.2508619    1.3523300 
N     2.2486282   -2.9868282   -0.6934755 
C     2.1572541   -1.9207217   -1.6485216 
H     1.5821679   -3.7699199   -0.5021259 
H     1.3180198   -1.7675752   -2.3239506 
