48
Energy =
C    -0.2569579    5.0565939   -0.6667443 
C     0.6030560    4.3774562    0.1340961 
C    -1.1898899    4.3854222   -1.3940098 
C    -1.2542885    3.0369783   -1.3149872 
C    -0.3973858    2.3532391   -0.5156136 
C     0.5396763    3.0195603    0.2137077 
H     1.3436320    4.9278551    0.7084005 
H    -1.9998670    2.5108180   -1.9015335 
H    -0.4648598    1.2679498   -0.4686879 
H    -0.1983511    6.1377730   -0.7247120 
C     1.5051051    2.2555277    1.0984955 
C     2.7410903    1.7040536    0.3444069 
H     0.9635400    1.4035252    1.5712952 
H     1.8435821    2.8961010    1.9418275 
C     2.3566392    0.7060314   -0.7463663 
O    -2.0930002    5.0553859   -2.2268676 
H    -1.9710645    6.0617719   -2.2491676 
O     1.6633194   -0.4381022   -0.3703395 
N     3.5996092    2.8035613   -0.1365714 
H     3.3279169    1.0889103    1.0672033 
H     3.0428212    3.4644957   -0.7277081 
H     3.9422908    3.3557952    0.6852123 
N     2.4331959    1.0185099   -2.1467771 
C     3.8235309    0.9412064   -2.6612980 
H     2.0190290    1.9710392   -2.2688981 
C     4.0328159    1.9085444   -3.8254564 
O     3.7334745    1.5131309   -5.1231387 
O     4.5015675    3.2063899   -3.6166869 
H     4.6551172    3.4125707   -2.6410834 
C     4.1211615   -0.5185970   -3.0927720 
H     4.5692065    1.2574389   -1.8951017 
C     4.6578920   -1.3519349   -1.9506993 
H     4.8621791   -0.5498839   -3.9239227 
H     3.1921887   -0.9760482   -3.5050745 
C     5.9077148   -1.3242314   -1.4627818 
C     6.9787055   -0.5887425   -1.8579012 
C     8.1534238   -0.7410871   -1.1816318 
C     8.2384349   -1.6148017   -0.1326793 
C     7.1488147   -2.3417670    0.2462826 
C     5.9987450   -2.1743719   -0.4394911 
H     6.9128724    0.1054366   -2.6911792 
H     9.0270061   -0.1653275   -1.4786309 
H     9.1783403   -1.7306974    0.4012834 
H     7.1983598   -3.0379044    1.0766875 
N     4.7560918   -2.8206214   -0.2051139 
C     3.9401354   -2.2279101   -1.2268738 
H     4.5038132   -3.5370481    0.5139373 
H     2.8771309   -2.4279217   -1.3676964 
