48
Energy =
C    -0.6336644    3.0290344    0.6856770 
C    -0.4420763    2.8913339   -0.6511201 
C     0.3893016    3.4337957    1.4846053 
C     1.5979087    3.6983152    0.9403549 
C     1.7937190    3.5656237   -0.3962914 
C     0.7754149    3.1582017   -1.2027347 
H    -1.2696933    2.5667931   -1.2760383 
H     2.4065497    4.0135791    1.5913842 
H     2.7725615    3.7735894   -0.8193731 
H    -1.6069487    2.8145715    1.1141644 
C     0.9935964    2.9986172   -2.6967599 
C     1.5379038    1.6093059   -3.1090514 
H     1.6953231    3.7816108   -3.0610255 
H     0.0360912    3.1816400   -3.2337912 
C     2.9896067    1.4224235   -2.7207076 
O     0.2260973    3.5870757    2.8642306 
H    -0.7051937    3.3630352    3.1973859 
O     3.3246656    1.2214627   -1.3840092 
N     0.6831773    0.5103660   -2.6143948 
H     1.5519752    1.5788415   -4.2225489 
H     0.7834906    0.4147385   -1.5738447 
H    -0.3232818    0.7110337   -2.8210466 
N     4.0043064    1.8942001   -3.6184737 
C     5.1421676    0.9447859   -3.6939109 
H     4.3361414    2.7874967   -3.1832114 
C     6.3833029    1.6475796   -4.2288873 
O     7.5485408    1.6438309   -3.4799701 
O     6.3800529    2.3083041   -5.4530746 
H     5.4828143    2.1863917   -5.8961254 
C     4.7943656   -0.2506278   -4.6158818 
H     5.4305244    0.5741505   -2.6800290 
C     3.8568159   -1.2464392   -3.9659089 
H     5.7262719   -0.8045473   -4.8758594 
H     4.3800250    0.1275042   -5.5733485 
C     2.6042279   -1.5580070   -4.3419277 
C     1.8443526   -1.0693446   -5.3567151 
C     0.5855390   -1.5641840   -5.5225497 
C     0.1042717   -2.5296981   -4.6821454 
C     0.8822432   -3.0044968   -3.6689125 
C     2.1255412   -2.4993228   -3.5255243 
H     2.1997152   -0.2917760   -6.0248388 
H    -0.0347871   -1.1832279   -6.3281375 
H    -0.9014956   -2.9186200   -4.8206388 
H     0.5183459   -3.7686197   -2.9900689 
N     3.0850399   -2.8591979   -2.5432921 
C     4.1774705   -2.0039776   -2.9014043 
H     3.0182279   -3.5629606   -1.7724566 
H     5.1331620   -1.9788552   -2.3819953 
