48
Energy =
C     5.9167678    5.6168721    0.9903391 
C     5.7753047    4.4181782    1.6102773 
C     4.8619458    6.1820373    0.3458823 
C     3.6717753    5.5423312    0.3249547 
C     3.5206694    4.3508217    0.9568700 
C     4.5758062    3.7705781    1.5946296 
H     6.6310350    3.9803244    2.1173167 
H     2.8435906    5.9947227   -0.2115572 
H     2.5496711    3.8675891    0.9409672 
H     6.8760327    6.1230997    1.0115187 
C     4.4317421    2.4202509    2.2805939 
C     4.7529097    1.1842694    1.3871015 
H     3.4062827    2.3176973    2.7014672 
H     5.1084083    2.3953841    3.1634160 
C     3.5692881    0.6973589    0.5574084 
O     4.9723726    7.4222904   -0.2902711 
H     5.9073657    7.8142224   -0.2748813 
O     3.0930402   -0.5956512    0.7573544 
N     5.9577537    1.3948803    0.5658046 
H     4.9593948    0.3285838    2.0734135 
H     5.8118698    2.1818336   -0.1104311 
H     6.7657145    1.6471011    1.1804527 
N     2.7401276    1.6218049   -0.1588392 
C     3.1347357    1.7149640   -1.5806263 
H     1.7544677    1.2846621   -0.0657848 
C     2.8051118    3.1102602   -2.1157807 
O     3.7940672    3.8449435   -2.7597802 
O     1.5428149    3.6913642   -1.9636840 
H     0.8959942    3.0707285   -1.5020612 
C     2.4596152    0.5952302   -2.4108362 
H     4.2352555    1.5829332   -1.6732078 
C     2.8568865    0.5423946   -3.8790829 
H     1.3578377    0.7165388   -2.3406828 
H     2.7158699   -0.3854480   -1.9525185 
C     2.2215682   -0.1718659   -4.8235119 
C     1.1152162   -0.9539785   -4.7217416 
C     0.6638070   -1.5886820   -5.8415537 
C     1.3186729   -1.4377001   -7.0323554 
C     2.4303663   -0.6526547   -7.1098258 
C     2.8557714   -0.0338871   -5.9884802 
H     0.5961191   -1.0814984   -3.7765054 
H    -0.2202845   -2.2194567   -5.7865208 
H     0.9534536   -1.9475582   -7.9203748 
H     2.9646754   -0.5256817   -8.0452608 
N     3.9905927    0.8059853   -5.8513333 
C     3.9286033    1.1289820   -4.4544710 
H     4.6893265    1.1002910   -6.5719131 
H     4.6552354    1.7635580   -3.9478887 
