48
Energy =
C    -3.5482968    3.8998457    0.8670781 
C    -2.2538826    3.7992942    0.4716860 
C    -4.1608311    2.8490919    1.4752909 
C    -3.4728943    1.7033777    1.6826109 
C    -2.1783429    1.5970363    1.2894146 
C    -1.5589859    2.6479287    0.6850595 
H    -1.7788224    4.6463010   -0.0177985 
H    -3.9738341    0.8717557    2.1658653 
H    -1.6460794    0.6652048    1.4593777 
H    -4.0926759    4.8219144    0.6938364 
C    -0.1225900    2.5311926    0.2259068 
C    -0.0251836    2.2272675   -1.2872223 
H     0.4118578    1.7515986    0.8112003 
H     0.4022168    3.4893055    0.4478857 
C     1.4002912    2.3906215   -1.7901974 
O    -5.4934150    2.9191524    1.8943058 
H    -5.9388243    3.8099282    1.7027934 
O     1.7112955    3.5493296   -2.4865328 
N    -0.5567553    0.8859292   -1.5916491 
H    -0.6160146    2.9915236   -1.8497436 
H    -0.2105571    0.1778284   -0.9036829 
H    -1.6020449    0.9013759   -1.5141707 
N     2.4231304    1.4436800   -1.4109357 
C     3.8456152    1.5162496   -1.8308253 
H     2.1458879    0.7044174   -0.7287797 
C     4.3240858    2.8326887   -2.4665950 
O     5.0924674    3.7051768   -1.7020965 
O     4.0948403    3.1477622   -3.8074927 
H     3.3440333    2.5880643   -4.1804934 
C     4.1592826    0.2707486   -2.6921543 
H     4.4552215    1.4371045   -0.9022784 
C     5.6493136    0.0793352   -2.8924345 
H     3.6248416    0.3234854   -3.6635453 
H     3.7607183   -0.6359890   -2.1848981 
C     6.3740109    0.3680840   -3.9875599 
C     5.9857426    0.8700139   -5.1885181 
C     6.9362861    1.0763062   -6.1445145 
C     8.2464732    0.7789715   -5.8918691 
C     8.6142701    0.2734226   -4.6808730 
C     7.6557405    0.0791126   -3.7507930 
H     4.9493881    1.1106505   -5.3964853 
H     6.6499009    1.4842486   -7.1108934 
H     8.9981375    0.9496661   -6.6583512 
H     9.6495612    0.0344413   -4.4631915 
N     7.8292016   -0.4312387   -2.4367230 
C     6.4825230   -0.3958748   -1.9492766 
H     8.7038675   -0.7498805   -1.9604649 
H     6.1840936   -0.7025974   -0.9497011 
