48
Energy =
C     6.7207674    2.3184302   -0.2008769 
C     5.6212689    2.4563216    0.5831543 
C     7.2711295    1.0911458   -0.3976850 
C     6.7223087    0.0103467    0.1997831 
C     5.6201633    0.1400790    0.9781731 
C     5.0610003    1.3656679    1.1747028 
H     5.1729543    3.4427349    0.6951356 
H     7.1636700   -0.9648618    0.0309893 
H     5.1806289   -0.7497206    1.4229817 
H     7.1449617    3.1898179   -0.6881442 
C     3.7841390    1.4999514    1.9760658 
C     2.5393530    1.5683978    1.0599251 
H     3.8382075    2.4128151    2.6078357 
H     3.6817514    0.6417492    2.6790314 
C     2.4303012    0.3383222    0.1623881 
O     8.3887104    0.9111746   -1.2197661 
H     8.7515627    1.7723188   -1.6145737 
O     2.4728866   -0.9283907    0.7365660 
N     1.3260199    1.7216601    1.8772862 
H     2.6283857    2.4572532    0.3924995 
H     1.2325822    0.9188911    2.5463292 
H     1.3677893    2.6097260    2.4310287 
N     2.0403630    0.4475843   -1.2160261 
C     3.0701187    1.1209245   -2.0511020 
H     1.1189744    0.9466550   -1.2392780 
C     2.6131838    2.5016533   -2.5122802 
O     1.6112612    2.6051534   -3.4739232 
O     3.1382592    3.6656107   -1.9389349 
H     3.8604795    3.4924787   -1.2495584 
C     3.3886355    0.2165355   -3.2582017 
H     4.0258117    1.2918495   -1.5011948 
C     4.2499591   -0.9587605   -2.8505015 
H     3.9252721    0.8007823   -4.0409782 
H     2.4439355   -0.1337324   -3.7305034 
C     3.8347125   -2.1395024   -2.3636480 
C     2.5763383   -2.6012607   -2.1493768 
C     2.4243506   -3.8510024   -1.6244863 
C     3.5201138   -4.6132544   -1.3268133 
C     4.7747047   -4.1291352   -1.5509207 
C     4.8984535   -2.8898726   -2.0704350 
H     1.7053124   -1.9934013   -2.3737555 
H     1.4262920   -4.2382586   -1.4339876 
H     3.3903727   -5.6065078   -0.9042264 
H     5.6549190   -4.7178997   -1.3162491 
N     6.1046036   -2.2004482   -2.3657203 
C     5.5952722   -0.9534230   -2.8558252 
H     7.0983770   -2.5088383   -2.2548784 
H     6.2191198   -0.1115337   -3.1540214 
