48
Energy =
C    -2.2100643   -1.4989543   -4.9965309 
C    -1.8351243   -1.3449996   -3.7012915 
C    -1.2704097   -1.5646943   -5.9769345 
C     0.0390354   -1.4741257   -5.6536416 
C     0.4191561   -1.3236957   -4.3600713 
C    -0.5154787   -1.2549146   -3.3728192 
H    -2.5998352   -1.2938009   -2.9311557 
H     0.7792514   -1.5195420   -6.4445879 
H     1.4745690   -1.2472391   -4.1238780 
H    -3.2633001   -1.5694583   -5.2459736 
C    -0.0978430   -1.0813461   -1.9241371 
C     0.1012608    0.3947114   -1.4896617 
H     0.8366601   -1.6535331   -1.7337832 
H    -0.8647796   -1.5431046   -1.2635907 
C     1.3956836    1.0023117   -2.0264356 
O    -1.6226512   -1.7282602   -7.3205916 
H    -2.6230304   -1.7669387   -7.4817449 
O     1.5036897    1.2967625   -3.3824204 
N    -1.0682013    1.2227816   -1.8250917 
H     0.1944107    0.3943203   -0.3811746 
H    -1.1084647    1.3719902   -2.8634354 
H    -1.9493529    0.7409711   -1.5337718 
N     2.5515658    1.1055024   -1.1660385 
C     3.9312864    1.0186931   -1.6948884 
H     2.3990611    1.1085839   -0.1326204 
C     4.4733567    2.3920937   -2.0987825 
O     3.7082735    3.2488682   -2.8782264 
O     5.7745848    2.7850239   -1.7720043 
H     6.2826870    2.0714566   -1.2714958 
C     4.0621016   -0.0275699   -2.8273809 
H     4.5645225    0.6665545   -0.8505166 
C     5.5050435   -0.4071124   -3.0757784 
H     3.6148840    0.3592016   -3.7696038 
H     3.4888662   -0.9380119   -2.5516528 
C     6.3627533    0.1800380   -3.9275450 
C     6.1724081    1.2178345   -4.7833577 
C     7.2267731    1.6336789   -5.5418842 
C     8.4412261    1.0141760   -5.4365497 
C     8.6097959   -0.0239408   -4.5692835 
C     7.5518199   -0.4171376   -3.8293042 
H     5.2139799    1.7240399   -4.8636414 
H     7.1014469    2.4684003   -6.2280764 
H     9.2772196    1.3554232   -6.0421241 
H     9.5683305   -0.5217307   -4.4692402 
N     7.5190283   -1.4591029   -2.8640258 
C     6.1595348   -1.3810912   -2.4196660 
H     8.2834207   -2.1057206   -2.5617048 
H     5.7297771   -2.0165346   -1.6489549 
