48
Energy =
C     0.0802450   -3.5257772    2.2919801 
C    -0.3728174   -2.7890930    1.2427050 
C     1.2999006   -3.2625913    2.8397001 
C     2.0592996   -2.2649126    2.3318582 
C     1.6025850   -1.5353403    1.2855176 
C     0.3860001   -1.7769646    0.7413434 
H    -1.3426510   -3.0182936    0.8092483 
H     3.0298848   -2.0592366    2.7690144 
H     2.1761236   -0.6416658    0.7748681 
H    -0.5327481   -4.3278378    2.6887151 
C    -0.0713383   -0.9658046   -0.4649333 
C     0.3055824    0.5460187   -0.3912085 
H    -1.1758663   -1.0528021   -0.5612996 
H     0.3679777   -1.4141331   -1.3824114 
C     1.8157652    0.8062611   -0.5604229 
O     1.7940195   -4.0012394    3.9193665 
H     1.1661247   -4.7297736    4.2405006 
O     2.7263003    0.1922671    0.3068490 
N    -0.4870353    1.2996870   -1.3773661 
H     0.0572062    0.9284454    0.6276454 
H    -0.3171524    0.9201729   -2.3396974 
H    -1.5096222    1.1995963   -1.1730159 
N     2.2824484    1.7795586   -1.5137910 
C     3.7635901    1.8850956   -1.5849550 
H     1.8435989    2.6858047   -1.2322071 
C     4.2178789    3.2644354   -2.0659047 
O     4.9333759    3.4130085   -3.2455958 
O     3.9854782    4.4038078   -1.2946847 
H     3.5235941    4.1912975   -0.4237097 
C     4.3363248    0.7149147   -2.4323463 
H     4.2173814    1.8140032   -0.5685118 
C     3.7111158    0.5874218   -3.8122779 
H     4.1570740   -0.2374030   -1.8860393 
H     5.4395219    0.8122368   -2.5054274 
C     4.2775098    0.8632785   -5.0024031 
C     5.5152017    1.3413002   -5.2970313 
C     5.8497637    1.5206019   -6.6073986 
C     4.9567552    1.2157552   -7.5960655 
C     3.7232093    0.7309304   -7.2803869 
C     3.4134732    0.5673616   -5.9770620 
H     6.2256108    1.5959901   -4.5176245 
H     6.8299275    1.9143594   -6.8657067 
H     5.2300146    1.3629416   -8.6379484 
H     3.0033170    0.4813122   -8.0523421 
N     2.1985396    0.0604018   -5.4465963 
C     2.4775176    0.1007167   -4.0418917 
H     1.3398662   -0.2636999   -5.9474241 
H     1.7910321   -0.2396732   -3.2728612 
