48
Energy =
C     2.0793124    6.1578857   -0.1404972 
C     1.5045003    4.9756075    0.1937593 
C     1.6354262    6.8520943   -1.2211069 
C     0.6158387    6.3580701   -1.9591760 
C     0.0402539    5.1734628   -1.6317699 
C     0.4911417    4.4648298   -0.5589598 
H     1.8648959    4.4434544    1.0692782 
H     0.2668418    6.9236731   -2.8164358 
H    -0.7822113    4.7992607   -2.2352545 
H     2.8947635    6.5458530    0.4598479 
C    -0.1499456    3.1396990   -0.1946287 
C     0.0710610    2.0512046   -1.2725322 
H    -1.2407630    3.3129442   -0.0634881 
H     0.2239090    2.7663384    0.7861715 
C     1.5247203    1.5984961   -1.3600937 
O     2.2027445    8.0761412   -1.5908985 
H     2.9761360    8.3693182   -1.0036461 
O     2.3100982    2.0584421   -2.4122938 
N    -0.8430347    0.9207443   -1.0252150 
H    -0.1553758    2.4717673   -2.2808108 
H    -0.8101125    0.6408259   -0.0153662 
H    -1.8277313    1.2190808   -1.2234605 
N     2.0042449    0.4945145   -0.5758868 
C     3.2279300    0.6526072    0.2367976 
H     1.3764223   -0.3314910   -0.4544201 
C     3.3758790    2.0369557    0.8738240 
O     2.9043309    2.2364345    2.1664250 
O     3.9354566    3.1271139    0.2048475 
H     4.1079847    2.9216772   -0.7689100 
C     4.4551686    0.2215134   -0.5955983 
H     3.1537390   -0.0412648    1.1051085 
C     4.3969451   -1.2523105   -0.9279675 
H     5.3970082    0.4401144   -0.0458168 
H     4.4965971    0.7980225   -1.5457831 
C     4.7879156   -2.2710176   -0.1469993 
C     5.3512136   -2.2547062    1.0884487 
C     5.6497034   -3.4471303    1.6796698 
C     5.3808922   -4.6237718    1.0363013 
C     4.8105493   -4.6151743   -0.2021783 
C     4.5268902   -3.4228903   -0.7672375 
H     5.5608544   -1.3216331    1.6025671 
H     6.1020913   -3.4620513    2.6682651 
H     5.6203066   -5.5700137    1.5148230 
H     4.5861290   -5.5390804   -0.7242094 
N     3.9211177   -3.1936437   -2.0317955 
C     3.8657558   -1.7606685   -2.0532554 
H     3.6003387   -3.8819099   -2.7506342 
H     3.4266179   -1.1697272   -2.8551514 
