48
Energy =
C     2.3806337    4.3310601   -3.1183768 
C     1.4410593    3.7896213   -2.3032576 
C     3.5539119    4.7858872   -2.6024770 
C     3.7752048    4.6994055   -1.2705551 
C     2.8387367    4.1576010   -0.4514728 
C     1.6684292    3.6904529   -0.9643863 
H     0.5086600    3.4321169   -2.7308911 
H     4.7113322    5.0704772   -0.8671303 
H     3.0348700    4.1050273    0.6166772 
H     2.1916821    4.3980665   -4.1837201 
C     0.6314981    3.0687379   -0.0527210 
C     0.4039153    1.5674704   -0.3519950 
H    -0.3258388    3.6210417   -0.1753303 
H     0.9283994    3.1901575    1.0136720 
C     1.6892075    0.7494126   -0.3011710 
O     4.5453142    5.3469777   -3.4168364 
H     4.3044572    5.3765860   -4.4013321 
O     2.1319602    0.1818315   -1.4857250 
N    -0.6159444    1.0270688    0.5628293 
H     0.0302053    1.4597049   -1.3971418 
H    -0.4057482    1.3046626    1.5508544 
H    -1.5445940    1.4494046    0.3259134 
N     2.4211889    0.6388678    0.9426649 
C     3.7147117   -0.0979576    1.0757277 
H     1.7455215    0.2267256    1.6250516 
C     4.6036575    0.6801394    2.0438997 
O     5.0355163    0.0726587    3.2171284 
O     5.0259121    1.9810500    1.7692691 
H     4.6179607    2.3187323    0.9114036 
C     4.5231106   -0.3789857   -0.2255366 
H     3.5594709   -1.0359928    1.6206569 
C     4.1548902   -1.5288643   -1.1759151 
H     5.5835958   -0.5729636    0.0546443 
H     4.5399385    0.5675453   -0.8116492 
C     3.4866200   -2.7053701   -1.0099910 
C     2.8534573   -3.2605523    0.0654353 
C     2.2614800   -4.4812142   -0.0707459 
C     2.3008629   -5.1407837   -1.2617895 
C     2.9327810   -4.5850637   -2.3274141 
C     3.5113786   -3.3759787   -2.1742955 
H     2.7827542   -2.7930753    1.0247320 
H     1.7519272   -4.9324330    0.7776227 
H     1.8254484   -6.1135334   -1.3599341 
H     2.9746786   -5.0976314   -3.2825420 
N     4.2177754   -2.6644925   -3.1727405 
C     4.5995700   -1.4954435   -2.4496464 
H     4.4140762   -2.9286407   -4.1654012 
H     5.1790537   -0.6826960   -2.8818141 
