48
 energy: -9.279922245562 gnorm: 0.000904827413 xtb: 6.6.0 (2ccbbd7)
C            2.33363402871368        4.58934818989710        4.04402063436818
C            1.95907720120419        3.99009358403052        2.86490062424723
C            2.25397363957414        3.89219813216760        5.25024508456319
C            1.78789406762789        2.57781608744589        5.22531391619470
C            1.41487551010121        1.98569271700182        4.04240281975188
C            1.48889583654117        2.68439615877228        2.84691748054144
H            2.03619481501611        4.53129994807559        1.93709710838296
H            1.72899345944697        2.03996713540877        6.15464758988767
H            1.06301113257194        0.96822102581255        4.03408508030259
H            2.69519500881966        5.60223275968418        4.04664447287653
C            1.13155030545215        2.02332653048512        1.55418772363030
C            2.24036514626535        1.11728456869214        1.01098140927155
H            0.90863629740706        2.78633007812599        0.80128538884011
H            0.20797157649586        1.44609717167813        1.67040392467082
C            1.77074671529720        0.52454424745142       -0.30565755737542
O            2.62337701360859        4.46469130942017        6.45213957194640
H            2.90844092211008        5.39305925802819        6.30929729820931
O            0.87408541306959       -0.29642387445061       -0.24041038313368
N            3.49988848629410        1.83035930100536        0.90840874914950
H            2.39669943475119        0.27838090813470        1.70667915562314
H            3.33959166116030        2.57148477288839        0.23277895916046
H            3.73663256950751        2.26780707030150        1.78753484677335
N            2.26050496503883        0.92591930806942       -1.54249059462938
C            3.63703396685065        1.36659925600297       -1.83504614182841
H            1.79622399224017        0.55126407535683       -2.36773654633638
C            3.70785932150115        2.89083553272967       -1.93731011742609
O            2.85675118795885        3.53229314781175       -1.35693195657880
O            4.74535935748358        3.46516855462417       -2.60023497386096
H            5.37053065951282        2.79399059077508       -2.94329875034051
C            4.15630894539894        0.61051489303151       -3.06794710818690
H            4.25452484541036        1.06804332775501       -0.97950223935183
C            5.63304424008227        0.69681538356452       -3.24976775935585
H            3.64847417408035        0.99057744915976       -3.95910699323654
H            3.87453350988962       -0.44449721261937       -2.98708399639413
C            6.62586763574559        0.39991696380277       -2.26746179749919
C            6.57191895431087       -0.18916941317206       -0.99157247559894
C            7.73030058463244       -0.31231903493138       -0.27591794140104
C            8.95603977508022        0.13639054475567       -0.79344700253080
C            9.03409947975506        0.70803902341635       -2.03369037503827
C            7.85923502233435        0.84148507506838       -2.78369933018437
H            5.63712473054121       -0.55100497027919       -0.60251504233818
H            7.70478806871002       -0.76377165266644        0.70208564403304
H            9.84968813173809        0.02634172778779       -0.20176605063521
H            9.96790114988883        1.05509952241326       -2.43817092621012
N            7.61769505610141        1.37268271712061       -4.03807499025595
C            6.28219160223808        1.25364482784517       -4.32586788501849
H            8.33685659209802        1.75780109251537       -4.65345562329978
H            5.81415753542661        1.60887209357594       -5.23025818969120
