48
 energy: -9.062919479889 gnorm: 0.000552517221 xtb: 6.6.0 (2ccbbd7)
C            3.71560465981525       -3.97841232404484        1.92400083793266
C            2.89122810316558       -2.87795199302884        1.90177739265697
C            4.00560690610555       -4.67352183736397        0.74930439246079
C            3.43287262422832       -4.22657389050973       -0.44103051676528
C            2.60854433623164       -3.12732441363791       -0.45456847632125
C            2.32373785568374       -2.43730353284113        0.71459785221321
H            2.68451133017755       -2.34178759408556        2.81221155462827
H            3.65591899688784       -4.76155254454454       -1.34671375680646
H            2.17951977371483       -2.78628139361374       -1.38109305380108
H            4.15063027060311       -4.31124638089412        2.84933744267038
C            1.49642613103672       -1.19079792511370        0.66797663388795
C            2.27974054266992       -0.00554302826422        0.10114678869943
H            1.13584079244479       -0.93214765341780        1.66770119396838
H            0.59810225816334       -1.36273281738723        0.06603040009136
C            1.39552286578495        1.20539812621520       -0.10426626818753
O            4.83778310977577       -5.77685048326434        0.73493318751292
H            5.14622113793598       -5.97715684213401        1.64499730693841
O            0.40350625517140        1.33418622907680        0.58498069434713
N            3.40919888464629        0.35886371261053        0.94270052998729
H            2.68337471420355       -0.30689932978323       -0.87469117434439
H            3.06012468182031        0.75756691441557        1.80355355692831
H            3.95294428547918       -0.46019921372650        1.18034942850274
N            1.76726335180289        2.15409923030261       -1.03685462390487
C            3.10019513867308        2.15430237047861       -1.65201995439384
H            1.33154605946315        3.07139805161234       -0.96712302014878
C            3.51454394997144        3.52431146721673       -2.09141640525509
O            4.83620961404915        3.85005160892519       -2.01087620913127
O            2.55061434508622        4.36649864881684       -2.59242050746469
H            1.70761193354964        3.87536840365135       -2.72871368171327
C            3.21203745392953        1.15156809756360       -2.82426978407961
H            3.79158430617316        1.84775104705342       -0.85290215996179
C            4.42646971145058        0.28723851239019       -2.72477113912260
H            3.22650713947374        1.69605745722009       -3.77418104226650
H            2.31452938647308        0.52538247295441       -2.85923449710785
C            5.72923982534138        0.70889941627552       -2.32607567139810
C            6.25805323013515        1.95427716422856       -1.96180045988655
C            7.57050329311813        2.03667434794141       -1.60604932303909
C            8.39219553187751        0.89682229589634       -1.60004304894505
C            7.90129266708438       -0.33132805183338       -1.95178262674808
C            6.55367617465810       -0.43348249103386       -2.32075897858418
H            5.52253418810860        2.94550490798619       -1.97541367617090
H            7.98177722721401        2.99202904614222       -1.32557191655114
H            9.42617969587495        0.99416740843758       -1.31346025668692
H            8.52155406199614       -1.20957096717035       -1.94953557908978
N            5.77487374565607       -1.50819231305761       -2.71281278257639
C            4.49864309509435       -1.06395833752492       -2.95906275126984
H            6.11108414345257       -2.46904090905958       -2.79876367719119
H            3.67959426171697       -1.68849984476619       -3.27635981491763
