48
Energy =
C    -3.4937745   -0.2207767    1.5592252 
C    -2.1380638   -0.1900604    1.6064865 
C    -4.2022646    0.9385660    1.5045902 
C    -3.5479024    2.1220800    1.4978768 
C    -2.1920333    2.1590241    1.5445523 
C    -1.4784115    1.0014237    1.6023244 
H    -1.5866989   -1.1259325    1.6447038 
H    -4.1252126    3.0391865    1.4540815 
H    -1.6840456    3.1200345    1.5366684 
H    -4.0093253   -1.1750212    1.5636625 
C     0.0334018    1.0424048    1.6348987 
C     0.6468576    1.2935167    0.2347645 
H     0.4478817    0.1029551    2.0651863 
H     0.3547238    1.8496532    2.3322184 
C     2.1458167    1.5473002    0.3120106 
O    -5.5998580    0.9422854    1.4524642 
H    -6.0154480    0.0172642    1.4695863 
O     2.8443784    1.3131045    1.4922501 
N     0.3583908    0.1666166   -0.6682486 
H     0.2046639    2.2256071   -0.1862650 
H     0.6392272   -0.7352728   -0.2136854 
H    -0.6719205    0.1164459   -0.8496466 
N     2.8354648    2.1528616   -0.7885146 
C     3.9989480    1.4167466   -1.3223101 
H     2.4859537    3.0592558   -1.1682361 
C     5.1276255    2.3376214   -1.7794774 
O     6.4381638    1.9696435   -1.5028324 
O     4.9137498    3.4959056   -2.5291138 
H     3.9497791    3.6002149   -2.7997030 
C     3.5430156    0.4291939   -2.4199440 
H     4.4694117    0.8211151   -0.5016418 
C     2.9538110    1.1150291   -3.6332878 
H     2.7815958   -0.2594512   -1.9907573 
H     4.3969747   -0.2147858   -2.7240033 
C     3.6071577    1.5052366   -4.7398770 
C     4.9220436    1.3948771   -5.0611455 
C     5.3411694    1.8949279   -6.2588777 
C     4.4507369    2.4909229   -7.1085919 
C     3.1359655    2.5938729   -6.7632843 
C     2.7461143    2.0917439   -5.5727864 
H     5.6360297    0.9390714   -4.3810752 
H     6.3909079    1.8272381   -6.5340861 
H     4.7938813    2.8909902   -8.0591591 
H     2.4179445    3.0703665   -7.4216457 
N     1.4386869    2.1132572   -5.0186547 
C     1.6621854    1.4635876   -3.7604825 
H     0.5561511    2.5031660   -5.4211582 
H     0.8924846    1.2827445   -3.0141893 
