48
 energy: -9.281222543823 gnorm: 0.000564659213 xtb: 6.6.0 (2ccbbd7)
C            2.70977543826361        2.39879349379700        4.49945210109614
C            3.14344237427798        2.74592774117288        3.24178439720707
C            1.74844637256298        1.40279034040272        4.66979627526825
C            1.24377126234186        0.77462988775414        3.53252344233630
C            1.68338755829936        1.12924639543374        2.28033021344719
C            2.63663344655263        2.12233958948742        2.10906795327196
H            3.89084900611108        3.51219230840485        3.12712330573018
H            0.49714049101772        0.01119441704657        3.66001212426122
H            1.26037374803428        0.65467514935671        1.41341717388879
H            3.11054276827072        2.89194391269445        5.36675946081630
C            3.16498722756225        2.49068655836918        0.75269419901141
C            2.10578277924919        2.69712510094429       -0.34606616812078
H            3.87459094305552        1.72189066890798        0.43510103516658
H            3.74893399498351        3.41238930978852        0.84765660677856
C            1.54422020242496        1.38885838193472       -0.86163287963868
O            1.29065096015722        1.03009740611412        5.91908003997086
H            1.73250416386598        1.56626420914604        6.61219495460435
O            0.47366338769076        1.02736485684659       -0.41551170685148
N            1.01661498307048        3.53918394960815        0.11835456115235
H            2.56391548034523        3.22739616450682       -1.19727266931734
H            0.33805040647355        3.63717506938134       -0.62606738527326
H            0.53902206064964        3.04140748920747        0.85605155456760
N            2.20593733124590        0.61563319643635       -1.80013287234359
C            3.63357895097317        0.68144833084620       -2.17464009540168
H            1.76040662619295       -0.25488579098097       -2.08243764373209
C            4.12849679928456        2.10362127124550       -2.30450030640892
O            3.51332892186316        2.85301103270292       -3.03205556956754
O            5.24635316020732        2.44550183744294       -1.61041594793013
H            5.63240894611514        1.66893098843750       -1.14820048140669
C            3.87467872860155       -0.06180751383043       -3.48905763929482
H            4.19755102254854        0.18154645317487       -1.37606658298720
C            5.31622411244240       -0.19568798135303       -3.85554980072434
H            3.34624882705014        0.47065961652345       -4.28575916414091
H            3.42152107632687       -1.05681709344360       -3.43994347486068
C            6.15752285720671        0.81223503675652       -4.41714685373001
C            5.94665643415772        2.16037432240413       -4.75695260876253
C            6.98125267383189        2.87405109973797       -5.29353264584000
C            8.23819851689556        2.28427380867872       -5.50299470107230
C            8.47258760238919        0.97904605261942       -5.16701919016847
C            7.42499576130500        0.23118369161080       -4.61493070973062
H            5.00222180820441        2.62551088480542       -4.53406452527153
H            6.83561349950720        3.91154273355055       -5.54505377588035
H            9.03358832298883        2.87498461135200       -5.92631415810378
H            9.43440334882683        0.52187406521332       -5.31540624330701
N            7.35544110131861       -1.07837021056978       -4.17457910830526
C            6.08501672616367       -1.32494403878818       -3.71687581868976
H            8.13158735856824       -1.74213885740978       -4.19869973346273
H            5.74538454480653       -2.26766580004150       -3.31953491891190
