48
Energy =
C    -2.5135050   -0.8284101    3.0578673 
C    -1.2213494   -0.5969921    2.7144642 
C    -3.4678809    0.1042890    2.7962853 
C    -3.1214867    1.2637784    2.1923909 
C    -1.8307474    1.5005245    1.8463637 
C    -0.8714555    0.5713537    2.1085328 
H    -0.4714497   -1.3547827    2.9257167 
H    -3.8921088    1.9993491    1.9895896 
H    -1.5714425    2.4376826    1.3603305 
H    -2.7812780   -1.7619580    3.5405659 
C     0.5636912    0.8277621    1.7051744 
C     0.8052297    0.5858794    0.1943686 
H     1.2644490    0.2024183    2.3025418 
H     0.8228979    1.8814107    1.9576585 
C     2.1939601    1.0315026   -0.2400754 
O    -4.8090463   -0.1038707    3.1346079 
H    -4.9853009   -0.9916611    3.5920717 
O     3.1124286    1.4905870    0.7016912 
N     0.5906518   -0.8298926   -0.1482869 
H     0.0937369    1.2145065   -0.3883875 
H     1.1607431   -1.4399806    0.4843712 
H    -0.4163482   -1.0785584   -0.0079652 
N     2.5239768    1.0447816   -1.6413917 
C     3.9830837    1.1334006   -1.9071700 
H     1.9946625    1.8363306   -2.0639935 
C     4.5569663    2.5540389   -1.9120659 
O     5.8029530    2.7597561   -1.3357993 
O     3.9713799    3.6225051   -2.5969312 
H     3.1214775    3.3736682   -3.0726450 
C     4.3122302    0.3686349   -3.2067726 
H     4.5501425    0.6132520   -1.0956916 
C     3.6198709    0.9371129   -4.4267992 
H     4.0248514   -0.6978452   -3.0804532 
H     5.4143049    0.3736071   -3.3691911 
C     2.3869626    0.6379220   -4.8682799 
C     1.4700719   -0.2336276   -4.3731749 
C     0.2688505   -0.3419501   -5.0095814 
C     0.0037302    0.4136416   -6.1181229 
C     0.9379797    1.2842523   -6.5955661 
C     2.1192654    1.3726870   -5.9491669 
H     1.6722980   -0.8271260   -3.4854669 
H    -0.4828743   -1.0301284   -4.6299165 
H    -0.9571808    0.3228148   -6.6186867 
H     0.7417754    1.8951416   -7.4703503 
N     3.2112621    2.2226613   -6.2697583 
C     4.1408249    1.8803779   -5.2322622 
H     3.3095953    2.9107192   -7.0520762 
H     5.1102759    2.3580338   -5.0874662 
