48
Energy =
C    -0.8380628    5.2184561   -2.1594188 
C    -1.2343955    3.9596759   -2.4765307 
C     0.3724840    5.6795179   -2.5742353 
C     1.1784652    4.8747816   -3.3034600 
C     0.7809119    3.6200904   -3.6327468 
C    -0.4252963    3.1508972   -3.2157289 
H    -2.2007196    3.6033546   -2.1303063 
H     2.1500154    5.2434038   -3.6139505 
H     1.4399088    2.9914791   -4.2245025 
H    -1.4906978    5.8545601   -1.5715996 
C    -0.8527568    1.7369723   -3.5525095 
C    -0.3363032    0.6791884   -2.5451651 
H    -0.4951729    1.4756122   -4.5746873 
H    -1.9620538    1.6803523   -3.6022578 
C     1.1777616    0.5078575   -2.5945800 
O     0.8053913    6.9753029   -2.2706964 
H     0.1608914    7.4981861   -1.6889175 
O     1.7591311    0.1671553   -3.8126311 
N    -0.8299793    0.9610286   -1.1834980 
H    -0.7337445   -0.3120566   -2.8624842 
H    -0.3908983    1.8423762   -0.8205450 
H    -1.8657107    1.1128903   -1.2024622 
N     1.8960039    0.1908808   -1.3938895 
C     3.2480311    0.7452588   -1.1869138 
H     1.4199991   -0.3895384   -0.6670501 
C     3.3603128    2.2297392   -1.5450615 
O     3.1906629    3.1739116   -0.5407278 
O     3.6370252    2.6831469   -2.8371517 
H     3.6097689    1.9393346   -3.5178034 
C     4.2999759   -0.1426068   -1.8876009 
H     3.4618720    0.7107246   -0.0946299 
C     4.2946910   -1.5443703   -1.3230071 
H     5.3124891    0.3029781   -1.7758830 
H     4.0946085   -0.2016317   -2.9783786 
C     4.9179414   -1.9679122   -0.2130277 
C     5.7179075   -1.2893627    0.6492541 
C     6.2262469   -1.9586943    1.7234350 
C     5.9285628   -3.2792761    1.9188510 
C     5.1192920   -3.9386397    1.0417088 
C     4.6305150   -3.2556095   -0.0144858 
H     5.9516355   -0.2391140    0.4994124 
H     6.8697181   -1.4386041    2.4294766 
H     6.3362232   -3.8051736    2.7788639 
H     4.8692244   -4.9845999    1.1852740 
N     3.7634583   -3.7458116   -1.0278485 
C     3.5882332   -2.5700982   -1.8303919 
H     3.3607384   -4.7033623   -1.1527779 
H     2.9478928   -2.5103791   -2.7093403 
