48
Energy =
C    -3.0533331    1.7909579   -3.1450569 
C    -1.6988245    1.7073749   -3.1174772 
C    -3.8043448    0.9877910   -2.3448137 
C    -3.1936859    0.1068241   -1.5202774 
C    -1.8399780    0.0191091   -1.4885391 
C    -1.0838039    0.8166777   -2.2913686 
H    -1.1124832    2.3596251   -3.7589259 
H    -3.8032802   -0.5259205   -0.8845006 
H    -1.3664778   -0.6921717   -0.8162399 
H    -3.5346579    2.5025010   -3.8072843 
C     0.4250399    0.7297566   -2.2413715 
C     1.0102875    1.4826878   -1.0241611 
H     0.8723610    1.1136941   -3.1837813 
H     0.7136389   -0.3437274   -2.1771473 
C     2.4946610    1.2024155   -0.8610674 
O    -5.2015713    1.0482708   -2.3493706 
H    -5.5833779    1.7349075   -2.9906120 
O     2.9148308    0.4296227    0.2190815 
N     0.7502066    2.9288928   -1.1199398 
H     0.5342417    1.0897560   -0.0940601 
H     0.9956990    3.2890607   -2.0707477 
H    -0.2698468    3.1101930   -0.9680808 
N     3.4432062    1.6230038   -1.8638822 
C     4.8498701    1.1836301   -1.7348058 
H     3.1159981    2.2085117   -2.6625240 
C     5.8182175    2.3421985   -1.9320671 
O     6.7700926    2.5999246   -0.9536662 
O     5.8248024    3.1213325   -3.0912455 
H     5.1183354    2.8300966   -3.7471323 
C     5.1335351    0.0429549   -2.7365483 
H     5.0672101    0.8270365   -0.7004528 
C     4.2430807   -1.1548269   -2.4924875 
H     6.1974264   -0.2753119   -2.6561384 
H     4.9883532    0.4082930   -3.7767738 
C     4.3551296   -2.0552419   -1.5039410 
C     5.2803696   -2.1521636   -0.5150165 
C     5.1640932   -3.1722687    0.3828306 
C     4.1378476   -4.0704021    0.2791813 
C     3.2213874   -3.9538119   -0.7235757 
C     3.3575904   -2.9360249   -1.5992013 
H     6.0946363   -1.4388880   -0.4293706 
H     5.8889307   -3.2685998    1.1877482 
H     4.0505675   -4.8784512    1.0011115 
H     2.4004990   -4.6561163   -0.8185793 
N     2.5173520   -2.6365109   -2.7055162 
C     3.1607113   -1.4656429   -3.2266978 
H     1.6629631   -3.1375199   -3.0410016 
H     2.8072134   -0.8979238   -4.0837382 
