48
Energy =
C    -0.0289187   -0.8191333    3.1604468 
C     1.2372999   -0.4055011    2.8937819 
C    -0.8702524   -0.0258918    3.8748574 
C    -0.4391587    1.1761448    4.3186300 
C     0.8243324    1.5946421    4.0538616 
C     1.6726333    0.8060155    3.3368204 
H     1.9023056   -1.0500041    2.3228963 
H    -1.1201326    1.7993190    4.8883290 
H     1.1490844    2.5653990    4.4187965 
H    -0.3683208   -1.7849662    2.8008760 
C     3.0816542    1.2807927    3.0322569 
C     3.2301312    1.9932340    1.6594503 
H     3.7875998    0.4207377    3.0805792 
H     3.4196358    1.9774865    3.8309595 
C     3.1945085    1.0540721    0.4621451 
O    -2.1791883   -0.4213842    4.1663093 
H    -2.4296530   -1.3314826    3.7955224 
O     3.3452427   -0.3207583    0.6271370 
N     2.2513356    3.0850091    1.5177051 
H     4.2509185    2.4380727    1.6210024 
H     1.2787417    2.6979055    1.4785428 
H     2.3096687    3.7243730    2.3441856 
N     3.2778530    1.5949112   -0.8585705 
C     4.5199802    1.3500007   -1.6086817 
H     2.4747877    2.1449177   -1.2388226 
C     4.9317349    2.5860510   -2.4026022 
O     3.9659434    3.3163361   -3.0856379 
O     6.2700527    2.9542794   -2.5464214 
H     6.8936991    2.3121730   -2.0800813 
C     4.2928483    0.1460779   -2.5390233 
H     5.3454989    1.1145879   -0.8972197 
C     5.5921969   -0.3415636   -3.1368846 
H     3.5730181    0.4200670   -3.3430396 
H     3.8159594   -0.6805508   -1.9666898 
C     6.4698185   -1.1790533   -2.5643161 
C     6.4119519   -1.8120072   -1.3644539 
C     7.4575203   -2.6095245   -1.0025745 
C     8.5345802   -2.7561162   -1.8329304 
C     8.5732801   -2.1038154   -3.0298461 
C     7.5247328   -1.3239309   -3.3670755 
H     5.5607389   -1.6878155   -0.6989388 
H     7.4348514   -3.1278526   -0.0471068 
H     9.3652101   -3.3911447   -1.5356734 
H     9.4233383   -2.2019565   -3.6962869 
N     7.3772039   -0.5432500   -4.5449517 
C     6.1018284    0.0708006   -4.3106325 
H     8.0226033   -0.4455993   -5.3619103 
H     5.6395277    0.8090550   -4.9654762 
