48
Energy =
C     0.1116451   -1.5051978    2.5473807 
C     1.4142419   -1.1516362    2.4066348 
C    -0.6944794   -0.8189818    3.4003653 
C    -0.1912437    0.2170773    4.1076566 
C     1.1095603    0.5758387    3.9703474 
C     1.9232761   -0.1060632    3.1159787 
H     2.0453091   -1.7142572    1.7226842 
H    -0.8447954    0.7559354    4.7847319 
H     1.4931001    1.4137056    4.5459809 
H    -0.2824783   -2.3388197    1.9756068 
C     3.3758507    0.2996352    2.9510736 
C     3.6268496    1.2424752    1.7469465 
H     3.9997948   -0.6159795    2.8346062 
H     3.7429560    0.7890854    3.8797272 
C     3.3298925    0.5679795    0.4067518 
O    -2.0403982   -1.1565118    3.5696206 
H    -2.3434226   -1.9393942    2.9998689 
O     3.8908850   -0.6786608    0.1509008 
N     2.9146310    2.5216770    1.9219059 
H     4.7200355    1.4548296    1.7151250 
H     1.8837088    2.3587046    2.0048679 
H     3.2285538    2.9769208    2.8118140 
N     2.6940349    1.2608906   -0.6829501 
C     3.6059790    2.2425253   -1.3225219 
H     1.8255294    1.7059039   -0.3106239 
C     2.8524157    3.4460570   -1.9030847 
O     2.8963121    3.7332742   -3.2607541 
O     2.1595616    4.3257846   -1.0717500 
H     2.2769668    4.0894181   -0.0982059 
C     4.4983192    1.5167625   -2.3627991 
H     4.2896399    2.6974646   -0.5685395 
C     3.7148123    0.7686177   -3.4306195 
H     5.1381170    0.7790947   -1.8305089 
H     5.1968172    2.2459885   -2.8224925 
C     3.6058857    1.0758845   -4.7373157 
C     4.1188176    2.1202180   -5.4400064 
C     3.8651173    2.1926598   -6.7784852 
C     3.1161936    1.2283427   -7.3925342 
C     2.6142589    0.1870416   -6.6713293 
C     2.8746579    0.1398498   -5.3479798 
H     4.6998449    2.8983982   -4.9565004 
H     4.2540586    3.0267020   -7.3576351 
H     2.9160815    1.2942606   -8.4590074 
H     2.0182915   -0.5871430   -7.1423427 
N     2.4591508   -0.8617492   -4.4326384 
C     3.0484457   -0.3814947   -3.2170956 
H     1.8873281   -1.7209670   -4.5999788 
H     2.9792410   -0.8914686   -2.2587901 
