48
Energy =
C     1.5865914   -4.2457713    0.9409985 
C     1.4156753   -3.2358759    0.0510890 
C     0.7461920   -4.3703312    2.0025390 
C    -0.2578582   -3.4796214    2.1681544 
C    -0.4314469   -2.4658422    1.2827215 
C     0.4033866   -2.3396008    0.2144640 
H     2.1050629   -3.1390894   -0.7836032 
H    -0.9187643   -3.5880691    3.0213270 
H    -1.2413981   -1.7573648    1.4356245 
H     2.4005091   -4.9493536    0.8037188 
C     0.2109770   -1.2020192   -0.7668481 
C     0.8197795    0.1287589   -0.2551195 
H    -0.8807381   -1.0761095   -0.9413646 
H     0.6435380   -1.4609248   -1.7584846 
C     2.3370302    0.1799552   -0.4332596 
O     0.8907863   -5.4017808    2.9360373 
H     1.6793781   -6.0136656    2.7553618 
O     3.1162631   -0.8173864    0.1452721 
N     0.1457944    1.2580797   -0.9237585 
H     0.6638722    0.2187659    0.8466028 
H     0.1559052    1.1245573   -1.9632006 
H    -0.8577979    1.2985629   -0.6244091 
N     2.9875496    1.3707066   -0.9099018 
C     4.3948777    1.2542278   -1.3500554 
H     2.4304884    2.2513706   -0.9810479 
C     5.0865088    2.6089272   -1.4708063 
O     6.3849179    2.7419228   -0.9958522 
O     4.4920010    3.7113699   -2.0871944 
H     3.6107958    3.4742277   -2.5152518 
C     4.5041374    0.4091526   -2.6432709 
H     4.9755310    0.7300494   -0.5530686 
C     3.7226958    0.9798157   -3.8059404 
H     4.1403498   -0.6214945   -2.4334821 
H     5.5735032    0.2912019   -2.9251192 
C     4.1681513    1.8325986   -4.7426957 
C     5.3928346    2.3991673   -4.8952452 
C     5.5858149    3.2552813   -5.9393066 
C     4.5646492    3.5282234   -6.8069919 
C     3.3430156    2.9485206   -6.6335190 
C     3.1768547    2.1060353   -5.5923330 
H     6.2019190    2.1967961   -4.1992389 
H     6.5550070    3.7286505   -6.0766581 
H     4.7258435    4.2142743   -7.6344703 
H     2.5208956    3.1577685   -7.3090717 
N     1.9912976    1.4137008   -5.2288202 
C     2.4323354    0.7082429   -4.0621864 
H     1.0531283    1.4217085   -5.6895341 
H     1.8105922    0.0379788   -3.4766232 
