48
Energy =
C     6.3853186   -1.1319060    1.8716467 
C     5.3375583   -0.4465883    2.3966939 
C     6.1656795   -2.2001963    1.0587439 
C     4.8972180   -2.5694255    0.7691940 
C     3.8469972   -1.8852819    1.2874104 
C     4.0611469   -0.8249891    2.1142216 
H     5.5276851    0.4065037    3.0440794 
H     4.7310818   -3.4184216    0.1150015 
H     2.8337571   -2.1887780    1.0316692 
H     7.3991646   -0.8248953    2.1057953 
C     2.8912148   -0.0512401    2.6828987 
C     2.5600832    1.1977165    1.8368499 
H     3.1266708    0.2571024    3.7253515 
H     1.9911821   -0.7044455    2.7480859 
C     2.2189574    0.8354148    0.4007504 
O     7.2221489   -2.9331481    0.5082244 
H     8.1398885   -2.5827231    0.7611138 
O     1.2622768   -0.1388433    0.1338095 
N     1.4560665    1.9432345    2.4602461 
H     3.4577149    1.8597072    1.7958015 
H     0.6009403    1.3381957    2.5132026 
H     1.7154839    2.2199522    3.4361585 
N     2.6861997    1.6510997   -0.6751405 
C     4.0860181    1.4833794   -1.0968719 
H     2.0082470    2.2904625   -1.1480267 
C     4.9073253    2.7107253   -0.7095137 
O     4.6375958    3.9333189   -1.3139838 
O     5.9321765    2.6429873    0.2353470 
H     6.1080980    1.6976848    0.5367572 
C     4.1092750    1.2393857   -2.6155820 
H     4.5328217    0.5891465   -0.6046182 
C     5.5164248    1.0039973   -3.1178347 
H     3.6603531    2.1123181   -3.1423652 
H     3.4720565    0.3608628   -2.8592023 
C     6.2132006   -0.1397799   -3.0463278 
C     5.8453640   -1.3521450   -2.5601295 
C     6.7645659   -2.3595790   -2.5713900 
C     8.0225471   -2.1423223   -3.0616759 
C     8.3695150   -0.9150666   -3.5434500 
C     7.4418990    0.0647963   -3.5233006 
H     4.8510647   -1.5221978   -2.1582516 
H     6.5027973   -3.3360600   -2.1694745 
H     8.7513615   -2.9488692   -3.0560717 
H     9.3661052   -0.7223354   -3.9255175 
N     7.6072248    1.4129504   -3.9390324 
C     6.3161395    1.9563329   -3.6297040 
H     8.4427713    1.8804823   -4.3594897 
H     6.0433027    3.0061097   -3.7377621 
