48
Energy =
C    -1.2636247    0.3750145   -3.5726797 
C    -0.9454918    1.1611782   -2.5151199 
C    -1.0676842   -0.9696686   -3.5097867 
C    -0.5712180   -1.5198238   -2.3771775 
C    -0.2575647   -0.7384929   -1.3146198 
C    -0.4270789    0.6127050   -1.3806568 
H    -1.1097945    2.2322217   -2.5863873 
H    -0.4203663   -2.5928886   -2.3279720 
H     0.1498785   -1.2023506   -0.4203569 
H    -1.6687721    0.8277534   -4.4718551 
C    -0.0442320    1.4922146   -0.2042540 
C     1.2756224    2.2807668   -0.3971944 
H     0.0391081    0.8814264    0.7228415 
H    -0.8705472    2.2112922   -0.0113494 
C     2.4922520    1.3722038   -0.5342897 
O    -1.3612474   -1.8031200   -4.5959262 
H    -1.7584522   -1.3167007   -5.3924671 
O     3.3660039    1.2347915    0.5391808 
N     1.1668651    3.2235665   -1.5208559 
H     1.4306378    2.8665410    0.5384770 
H     0.3399039    3.8444002   -1.3581292 
H     1.9919832    3.8684591   -1.4908297 
N     2.7994209    0.6975560   -1.7655888 
C     4.0219344    1.1189222   -2.4780114 
H     2.1149464    0.0267597   -2.1710292 
C     3.9338438    2.5396806   -3.0124188 
O     4.6460830    3.5731716   -2.4086641 
O     3.1247652    2.8170534   -4.1206872 
H     2.5606869    1.8537284   -4.4367437 
C     4.3304318    0.1350292   -3.6289795 
H     4.8804196    1.0732617   -1.7712204 
C     3.2572215    0.0222104   -4.7170151 
H     4.4861539   -0.8716084   -3.1823017 
H     5.2894646    0.4322346   -4.1075781 
C     3.3204831   -0.8697607   -5.7091637 
C     4.3108971   -1.7564946   -5.9974743 
C     4.1459506   -2.5973045   -7.0562031 
C     3.0034157   -2.5467441   -7.8010739 
C     2.0248946   -1.6533417   -7.4896278 
C     2.2171927   -0.8238140   -6.4379384 
H     5.2207008   -1.8070146   -5.4050153 
H     4.9243596   -3.3137942   -7.3044788 
H     2.8721530   -3.2234997   -8.6404163 
H     1.1076538   -1.6095898   -8.0680318 
N     1.2976951    0.1443643   -5.9603297 
C     1.9285637    0.7981459   -4.8002748 
H     0.3701324    0.3641052   -6.3942059 
H     1.6270447    1.7892423   -5.1993525 
