48
 energy: -8.938634998784 gnorm: 0.000923427920 xtb: 6.6.0 (2ccbbd7)
C            7.52999377625708        1.32303943120081        1.70533042020705
C            6.38857025719567        2.12555872298105        1.77317857495413
C            7.61349777179515        0.23238112834174        0.80621903495266
C            6.59563230545757        0.02866351119186       -0.08349835290178
C            5.45827522636423        0.97223088211983       -0.18875263643179
C            5.34245962995133        1.96201559621333        0.91850748443008
H            6.31612927377954        2.86739298240843        2.54997264824932
H            6.63988011381724       -0.83544878977470       -0.71946614837652
H            5.13034856454006        1.29898094172428       -1.35463041053324
H            8.33880178476025        1.48534271774989        2.39413421418354
C            4.03936191980136        2.66762869393094        1.13919809948084
C            2.82453099221723        1.72048253464687        1.36308507566292
H            3.83865225094666        3.33476617253610        0.29501849199308
H            4.14988788004774        3.33170674338136        2.00347169477948
C            1.93536167782523        1.56358192527163        0.13781248640636
O            8.68580564856713       -0.63961247678864        0.82623899177917
H            9.34139776358472       -0.35167892148452        1.49725335146819
O            0.82180636455973        2.05390490022015        0.17082902497080
N            3.18492171010541        0.42193790799321        1.92919347211719
H            2.16603197890681        2.19001936659634        2.11606476619385
H            3.38498858509324       -0.25841989112708        1.20876834685236
H            3.99295294342792        0.49797043729824        2.53403318240502
N            2.37263686638693        0.94326168348087       -1.02462687527177
C            3.78027367165167        1.11212869232084       -1.51196925129676
H            1.71684421969479        0.92816696912186       -1.80065020367123
C            3.82157733935645        2.56713678120962       -2.06294766671848
O            4.82986276339280        2.86581216481928       -2.66635422744039
O            2.77469181180688        3.40990806159022       -1.86757912541034
H            2.05002678465397        3.00606197883847       -1.32897372441161
C            3.94228432072773        0.12173698843366       -2.71912685684719
H            4.32175655055847        0.53757267932031       -0.44981481098662
C            4.54324883431662       -1.18453351008584       -2.32702321135029
H            4.55819393759884        0.58672502112668       -3.49777859845586
H            2.96999273293648       -0.05235917457540       -3.18826267452631
C            4.06371296730759       -2.06440523996430       -1.31276963328644
C            2.92734431111139       -2.04023080851421       -0.48820508627980
C            2.75105480019793       -3.04607243009137        0.41917595200359
C            3.68623880989079       -4.08734008703644        0.53612999169117
C            4.80272937977319       -4.13034938691410       -0.25377602163697
C            4.99893889753132       -3.10974607192813       -1.19259760900748
H            2.22457463508784       -1.23227235903290       -0.57815543609305
H            1.88287951572456       -3.04048001148959        1.05743547771116
H            3.51918874380797       -4.86566724144886        1.26218609914125
H            5.52469084719832       -4.92256460268605       -0.16843798702864
N            6.00851611543904       -2.86935074408267       -2.10859362404564
C            5.72040225696674       -1.71584827052624       -2.79545061205868
H            6.82779655156194       -3.46464698693943       -2.24258026791314
H            6.34958039354557       -1.27561848475603       -3.55243404409438
