48
 energy: -8.698810700209 gnorm: 0.000873812695 xtb: 6.6.0 (2ccbbd7)
C            1.00085013101930       -1.01866488904721       -7.76284045214848
C            1.34704788361114       -1.27216623404474       -6.45662875746407
C            1.41848649898107        0.15380496432734       -8.39385222853975
C            2.18849673135014        1.05870849826111       -7.66368368962484
C            2.52795579208175        0.79971826874987       -6.35787048859196
C            2.12124529785466       -0.37321638053355       -5.73799375223242
H            1.01463983805647       -2.17628119793767       -5.97615971893773
H            2.50144365477662        1.96783625437364       -8.14584459168447
H            3.09419352967626        1.52291655382269       -5.79658674416464
H            0.40200183895418       -1.72315725587036       -8.31195175926456
C            2.46795656580779       -0.63877668431465       -4.31210626407389
C            1.43453348218819       -0.14391480924023       -3.28861754466451
H            3.51641567670239       -0.10727612448487       -4.02511415272588
H            2.67648959977977       -1.70382986572487       -4.16486494153907
C            2.07223984699335        0.07250180529305       -1.92420841258559
O            1.08812535091124        0.43862629024751       -9.70478500388480
H            0.53640063325156       -0.28243234077058      -10.07756226432092
O            2.11422574436611       -0.87499055591837       -1.16157239603760
N            0.74804952120255        1.05874614640949       -3.70776845109626
H            0.65905720125497       -0.91541203215359       -3.15835652362214
H            1.53508693510317        1.85011868619398       -3.78039671088677
H            0.32821459264186        0.94077972733214       -4.62273352096435
N            2.59762315811783        1.34289021629492       -1.57439367769815
C            3.98182691394405        1.75948268724847       -1.96697234934516
H            2.49375965900381        1.58442282453037       -0.58758305398926
C            3.93890890519413        2.94184951540996       -2.89058046773529
O            4.75801733408467        3.99868505529895       -2.58740449639311
O            3.12492613356843        2.93262714621881       -3.99110303433529
H            2.22225409261428        2.38323045651979       -3.83057534644515
C            4.76432056842795        0.57443463002566       -2.52832730917509
H            4.50833992132757        2.09565775151841       -1.06072004091838
C            6.23496511481095        0.69982953072027       -2.77719753378053
H            4.17121799626142        0.22490411196058       -3.52108371535095
H            4.61707147817614       -0.27218265434479       -1.84622125027282
C            7.12607078795163        1.81762783519399       -2.66693223530372
C            6.95299082177563        3.18580782071477       -2.41376388653690
C            8.03916355144427        4.00648470493170       -2.34573645895676
C            9.33740855858088        3.50359459412476       -2.52223137657587
C            9.54423975733995        2.17881434634269       -2.78916172539326
C            8.43426856816793        1.32748865715636       -2.86935094171015
H            5.81656091098688        3.64289816151223       -2.44549147700874
H            7.89493615233343        5.06021679488289       -2.17349389533799
H           10.17811748962622        4.17434392262317       -2.45921730254966
H           10.53242088354014        1.78136655396207       -2.93632072120693
N            8.33987817402143       -0.02673208724449       -3.12075258873013
C            7.01975928093687       -0.39208388261619       -3.06125122383708
H            9.13525058605304       -0.64396748632153       -3.29416478562843
H            6.65865841118547       -1.39983325252026       -3.19035054797172
