48
 energy: -9.093450206154 gnorm: 0.000482329009 xtb: 6.6.0 (2ccbbd7)
C            0.66626321135050        1.91980132280147        4.05606712511567
C           -0.13543250997034        2.06679048999637        2.94817753474542
C            2.05683335314124        1.94298610510741        3.93774926108084
C            2.60773121707880        2.11904495030320        2.66899315298165
C            1.79797733216902        2.26754278177862        1.57013818684435
C            0.41748446432623        2.24734847618547        1.68856897520200
H           -1.20659198099479        2.04176962071361        3.05223053777360
H            3.67861980377520        2.12473936819091        2.56923411307891
H            2.22984996376343        2.37132587621497        0.58954351864274
H            0.22750736622216        1.78305488647451        5.02816705766062
C           -0.44882967825893        2.38180492805006        0.47342198280920
C           -0.39068818706148        1.15598909934152       -0.45252648550327
H           -0.13730865982016        3.27015531950189       -0.08651013236741
H           -1.48274439352979        2.56384258654955        0.78352679227489
C            0.95155534865701        1.04194181875211       -1.09382757628699
O            2.88867957044504        1.79174218405594        5.03133250306143
H            2.35276472141574        1.68316421399331        5.84703900565565
O            1.60985664527997        2.15858000495346       -1.52783495031393
N           -0.73279978762919       -0.07216263288023        0.25509038863624
H           -1.12351685128406        1.28006384334339       -1.26634613455845
H            0.00000047596127       -0.28053762124347        0.91988695619302
H           -1.59103751521563        0.04790853437454        0.77844617312301
N            1.58461997749818       -0.21092937123791       -1.26446476559817
C            3.04846670698849       -0.27743024149722       -1.30717088647567
H            1.17411625166607       -0.81683688120158       -1.97130896241991
C            3.71149870348559        1.03482307055275       -0.98835901518866
O            3.06838577438308        2.19973071430047       -1.15059333407702
O            5.00764063870434        0.99357039295873       -0.51479998532200
H            5.32236868239588        0.06562960042222       -0.44108139691977
C            3.56581262178907       -0.86232558395228       -2.63219041419034
H            3.32399987529665       -0.96599991798858       -0.49185639531686
C            3.22429028127859       -0.08239946055739       -3.86129334353290
H            3.17775702920682       -1.87940536009890       -2.75074518837601
H            4.65518326222954       -0.96147201727772       -2.58248573677245
C            3.36818041007749       -0.55795593913736       -5.19967334644356
C            3.77563242773865       -1.79220179344153       -5.73581141658799
C            3.80588674166394       -1.93928146506202       -7.09531170761015
C            3.44095889981681       -0.88526091418665       -7.94925990015935
C            3.04385347283851        0.32527933647358       -7.45031575615651
C            3.00556033214956        0.49635654680407       -6.06071805461388
H            4.05608435676194       -2.59575316461747       -5.07823086854340
H            4.11500551414005       -2.87935488598170       -7.52141601347254
H            3.47569932563024       -1.03490142011139       -9.01570922249410
H            2.76419693688479        1.13827935221956       -8.09608866966506
N            2.66034428590526        1.57691498563411       -5.26935128700773
C            2.79586303944326        1.21894138124859       -3.95304762928723
H            2.35826754669041        2.48783412129976       -5.62019692851924
H            2.57761737067689        1.86692558455362       -3.12092989136719
