48
Energy =
C    -2.0810164   -1.8199651    0.3176791 
C    -1.5961031   -0.5997940   -0.0254172 
C    -1.3133741   -2.6839033    1.0341559 
C    -0.0639072   -2.3199438    1.4012646 
C     0.4253646   -1.1005730    1.0625213 
C    -0.3387538   -0.2308685    0.3462021 
H    -2.2206225    0.0769517   -0.6021639 
H     0.5406083   -3.0188729    1.9679701 
H     1.4324438   -0.8310104    1.3657886 
H    -3.0835758   -2.1031140    0.0164202 
C     0.2088002    1.1258673   -0.0484239 
C     1.0471073    1.0935103   -1.3510201 
H     0.8265458    1.5322630    0.7828147 
H    -0.6269206    1.8497872   -0.1717868 
C     2.3192030    0.2664493   -1.2028093 
O    -1.7840790   -3.9479465    1.4063742 
H    -2.7241231   -4.1476315    1.0830959 
O     2.4802152   -0.9367380   -1.8838618 
N     0.2282218    0.6568941   -2.4949169 
H     1.3961924    2.1311553   -1.5609440 
H    -0.0086081   -0.3599117   -2.3940375 
H    -0.6694460    1.1931846   -2.5227674 
N     3.4184561    0.7762466   -0.4355227 
C     4.6345838    1.2270461   -1.1412684 
H     3.3319564    0.8192888    0.6042007 
C     4.3796600    2.4249394   -2.0586242 
O     4.9020635    3.6625841   -1.7061187 
O     3.6338836    2.3335742   -3.2363454 
H     3.2645935    1.4077540   -3.3948416 
C     5.3201847    0.0328453   -1.8464500 
H     5.3389900    1.6064215   -0.3650990 
C     6.7655091    0.3327946   -2.1805811 
H     4.7648598   -0.2771662   -2.7573198 
H     5.2781487   -0.8532822   -1.1733078 
C     7.2486100    0.8401084   -3.3272877 
C     6.6045089    1.1784643   -4.4739710 
C     7.3383571    1.6883205   -5.5043684 
C     8.6901288    1.8494224   -5.3767178 
C     9.3163671    1.5021537   -4.2168687 
C     8.5685412    1.0001072   -3.2117586 
H     5.5321054    1.0569717   -4.5817179 
H     6.8436304    1.9729468   -6.4302486 
H     9.2669992    2.2600195   -6.2017275 
H    10.3871455    1.6273557   -4.0974067 
N     9.0205474    0.5891813   -1.9294407 
C     7.7896479    0.1771028   -1.3228697 
H     9.9905460    0.5869878   -1.5386530 
H     7.7014905   -0.1926824   -0.3035035 
