48
Energy =
C     2.7254211    0.6118771   -8.6005662 
C     2.9166301    0.2220178   -7.3151913 
C     1.7713015    0.0135089   -9.3613618 
C     1.0115083   -0.9714798   -8.8304179 
C     1.1957995   -1.3667721   -7.5446719 
C     2.1565198   -0.7731104   -6.7757089 
H     3.6818854    0.7139205   -6.7200178 
H     0.2500789   -1.4361743   -9.4510506 
H     0.5659066   -2.1553348   -7.1399894 
H     3.3372013    1.4061380   -9.0173558 
C     2.3596802   -1.1927030   -5.3270979 
C     1.2540152   -0.6339214   -4.3954644 
H     3.3940470   -0.8704358   -4.9069515 
H     2.3339152   -2.3080657   -5.2844174 
C     1.7982947   -0.6768980   -2.9884895 
O     1.5497241    0.3886190  -10.6872930 
H     2.1454783    1.1425842  -11.0151470 
O     2.3918777   -1.8453411   -2.5386808 
N     0.7534486    0.7062799   -4.7985341 
H     0.3991962   -1.3428461   -4.4313440 
H     1.5215670    1.4219259   -4.7673367 
H     0.0146859    1.0332596   -4.1285195 
N     1.8853705    0.4905122   -2.1572496 
C     3.2309000    1.1155687   -1.9753955 
H     1.4396335    0.2443124   -1.2406830 
C     3.2702804    2.4566483   -2.7015780 
O     2.8994339    3.6078448   -2.0218357 
O     3.6678963    2.5380842   -4.0402115 
H     3.8828436    1.6468891   -4.4687176 
C     4.4489893    0.2163778   -2.3987154 
H     3.3588618    1.4104951   -0.9037362 
C     4.8663347   -0.8603941   -1.4077250 
H     5.3310659    0.8830126   -2.5228135 
H     4.2757645   -0.2429631   -3.4190072 
C     6.0306633   -1.5389969   -1.4408574 
C     7.0714402   -1.4450973   -2.3137649 
C     8.1509773   -2.2571192   -2.1237842 
C     8.1774491   -3.1388425   -1.0797607 
C     7.1261058   -3.2146188   -0.2167284 
C     6.0695938   -2.4024310   -0.4233439 
H     7.0711628   -0.7444219   -3.1449079 
H     9.0009285   -2.2039829   -2.8035895 
H     9.0437536   -3.7827056   -0.9342346 
H     7.1348479   -3.9093388    0.6186129 
N     4.8875471   -2.3250202    0.3562926 
C     4.1600390   -1.3071021   -0.3458630 
H     4.6289890   -2.8686892    1.2165334 
H     3.1584989   -0.9858902   -0.0692643 
