48
Energy =
C     5.7638453   -1.2588987    1.5721951 
C     4.6280164   -0.7184227    2.0817920 
C     5.6936346   -2.2044627    0.5973160 
C     4.4856457   -2.6044264    0.1399830 
C     3.3468496   -2.0648537    0.6433210 
C     3.4115318   -1.1196400    1.6209691 
H     4.7008407    0.0429378    2.8544566 
H     4.4426384   -3.3543037   -0.6428618 
H     2.3849773   -2.3812858    0.2448520 
H     6.7288158   -0.9292269    1.9425549 
C     2.1473507   -0.4771505    2.1490563 
C     1.8899494    0.8958351    1.4886553 
H     2.2344218   -0.3549531    3.2511920 
H     1.2699667   -1.1424116    1.9773784 
C     1.7321927    0.7783588   -0.0245988 
O     6.8440541   -2.7765907    0.0461601 
H     7.7097787   -2.4168579    0.4335399 
O     0.8543949   -0.1642896   -0.5507158 
N     0.7010484    1.5233471    2.0850505 
H     2.7684743    1.5561793    1.6757387 
H    -0.1442752    0.9297209    1.8980303 
H     0.8113707    1.5963067    3.1240731 
N     2.2811722    1.7719315   -0.9055404 
C     3.7362276    1.5685341   -1.1154818 
H     2.0805284    2.7024305   -0.4688450 
C     4.4499134    2.8519791   -1.5399718 
O     5.7302049    3.0987901   -1.0613163 
O     3.8692459    3.7792850   -2.4037250 
H     2.9905003    3.4374993   -2.7667884 
C     3.9672157    0.4259670   -2.1300363 
H     4.2353597    1.2721959   -0.1642317 
C     3.3858810    0.7250877   -3.4942992 
H     3.5005151   -0.5063494   -1.7483851 
H     5.0541405    0.2054722   -2.2118678 
C     4.0191836    1.2751821   -4.5423790 
C     5.3063847    1.6904468   -4.6636613 
C     5.7012984    2.2409734   -5.8474319 
C     4.8140312    2.3687113   -6.8802637 
C     3.5248731    1.9501564   -6.7334103 
C     3.1588357    1.4078889   -5.5530237 
H     6.0084040    1.6087300   -3.8388681 
H     6.7245487    2.5886728   -5.9656835 
H     5.1352394    2.8134652   -7.8184169 
H     2.8054070    2.0527697   -7.5381806 
N     1.8701386    0.9354451   -5.1883525 
C     2.1028974    0.5174248   -3.8363530 
H     0.9904559    0.9014064   -5.7516459 
H     1.3400315    0.1165714   -3.1700878 
