48
Energy =
C    -1.7147328    2.3380965   -0.9474353 
C    -0.4491491    2.5736522   -0.5195994 
C    -2.6311126    1.7939468   -0.1032244 
C    -2.2740717    1.4906980    1.1655743 
C    -1.0101006    1.7262259    1.5998669 
C    -0.0864639    2.2647333    0.7572731 
H     0.2718221    3.0118915   -1.2066397 
H    -3.0140786    1.0567252    1.8294583 
H    -0.7447404    1.4776450    2.6238351 
H    -1.9923819    2.5877212   -1.9657651 
C     1.3273115    2.5229043    1.2360851 
C     2.1033611    1.2219081    1.5594466 
H     1.2824502    3.1565948    2.1489203 
H     1.8909535    3.1164118    0.4810005 
C     2.0857842    0.1982906    0.4295337 
O    -3.9440468    1.5392116   -0.5123957 
H    -4.1357857    1.7960679   -1.4745907 
O     1.5550279   -1.0616656    0.6752802 
N     3.4809093    1.5547061    1.9663583 
H     1.5985200    0.7038069    2.4103838 
H     3.8992417    2.2791883    1.3322837 
H     3.4630161    1.9854440    2.9208728 
N     2.2783993    0.5871517   -0.9350755 
C     3.6362855    0.9595202   -1.3642981 
H     1.4452366    0.6158424   -1.5617223 
C     3.6920916    2.4370142   -1.7081853 
O     4.5209972    3.2699749   -0.9692785 
O     2.9015649    2.9975163   -2.7114975 
H     2.3661276    2.2976419   -3.2011888 
C     4.0635534    0.0708528   -2.5521943 
H     4.3734582    0.8210869   -0.5366705 
C     4.3938359   -1.3319547   -2.0900604 
H     4.9664303    0.5039149   -3.0411904 
H     3.2700341    0.0413270   -3.3292193 
C     3.5528031   -2.3743556   -1.9837602 
C     2.2326879   -2.4668693   -2.2872238 
C     1.5997818   -3.6564336   -2.0757608 
C     2.2881216   -4.7251179   -1.5721373 
C     3.6136139   -4.6101543   -1.2756639 
C     4.2170215   -3.4226569   -1.4929515 
H     1.6814525   -1.6191515   -2.6777271 
H     0.5401853   -3.7518670   -2.2992324 
H     1.7747155   -5.6676278   -1.3998936 
H     4.1729298   -5.4459830   -0.8696121 
N     5.5769009   -3.0939365   -1.2449819 
C     5.6050393   -1.7200893   -1.6519560 
H     6.3466253   -3.6961548   -0.8723406 
H     6.4833225   -1.0808827   -1.5937441 
