48
Energy =
C     2.4937898    4.9801973   -2.4240110 
C     1.5210615    4.0338232   -2.3848776 
C     2.5930166    5.9001076   -1.4298708 
C     1.7211175    5.8630528   -0.3969416 
C     0.7598336    4.9064872   -0.3413200 
C     0.6553224    3.9826024   -1.3361416 
H     1.4629275    3.2937035   -3.1835556 
H     1.8132320    6.6004063    0.3925916 
H     0.0841104    4.8814718    0.5089321 
H     3.2090219    4.9827345   -3.2392698 
C    -0.3868032    2.8851064   -1.2568991 
C     0.1942132    1.5104514   -0.8334421 
H    -0.8835759    2.7831126   -2.2488792 
H    -1.1936678    3.1690509   -0.5467917 
C     1.0883718    0.9049903   -1.9051213 
O     3.5786614    6.8929412   -1.4440438 
H     4.2466470    6.8013199   -2.2018868 
O     0.6000658    0.8280027   -3.2048111 
N     0.8638026    1.6010425    0.4775334 
H    -0.6539847    0.7939094   -0.7510419 
H     1.7007399    2.2274777    0.3979879 
H     0.2178390    2.0458998    1.1706908 
N     2.1859356    0.0561268   -1.5451594 
C     3.4816990    0.2463019   -2.2279067 
H     2.0385931   -0.6638982   -0.8042088 
C     3.8742861    1.7189846   -2.3522024 
O     3.9059098    2.3406970   -3.5971814 
O     4.2065403    2.4755874   -1.2305514 
H     4.1016290    1.9411485   -0.3807088 
C     3.4743518   -0.4769710   -3.5904424 
H     4.2791883   -0.2104134   -1.6013435 
C     3.3460198   -1.9756846   -3.4228765 
H     4.4267675   -0.2627641   -4.1248658 
H     2.6672469   -0.0587425   -4.2306555 
C     2.2318153   -2.7232370   -3.5175983 
C     0.9579449   -2.3665816   -3.8228629 
C    -0.0015541   -3.3369100   -3.8479772 
C     0.3227829   -4.6355783   -3.5725359 
C     1.6079559   -4.9729647   -3.2707680 
C     2.5385343   -3.9958779   -3.2521024 
H     0.6957736   -1.3386616   -4.0455954 
H    -1.0303330   -3.0758110   -4.0877727 
H    -0.4474521   -5.4033057   -3.5940385 
H     1.8818641   -5.9994537   -3.0494227 
N     3.9208646   -4.1379391   -2.9593572 
C     4.3685608   -2.7830183   -3.0874838 
H     4.4634459   -4.9990579   -2.7148554 
H     5.3933530   -2.4567924   -2.9204498 
