48
Energy =
C    -3.2412150    0.3256626   -3.2347041 
C    -2.1628755   -0.4512268   -2.9603020 
C    -3.1698656    1.2772338   -4.2035738 
C    -2.0173067    1.4447817   -4.8910964 
C    -0.9365760    0.6699910   -4.6217728 
C    -1.0022042   -0.2845443   -3.6531103 
H    -2.2356800   -1.2049867   -2.1813282 
H    -1.9691184    2.2081858   -5.6595729 
H    -0.0216281    0.8232469   -5.1867988 
H    -4.1604882    0.1843648   -2.6771462 
C     0.2067538   -1.1424724   -3.3397553 
C     1.1770012   -0.4874472   -2.3246875 
H     0.7517972   -1.3689946   -4.2830890 
H    -0.1230794   -2.1305845   -2.9492846 
C     1.7848072    0.8075980   -2.8505629 
O    -4.2645298    2.0925984   -4.5117910 
H    -5.0857848    1.9090744   -3.9466595 
O     1.4004933    2.0431238   -2.3356848 
N     0.5278714   -0.3079402   -1.0146204 
H     2.0393125   -1.1770343   -2.1845539 
H    -0.2243641    0.4197477   -1.0865755 
H     0.0720586   -1.2003623   -0.7134592 
N     2.7907044    0.7609082   -3.8731175 
C     4.1112253    1.3242321   -3.5383872 
H     2.5589639    0.3442821   -4.8039282 
C     4.8205053    1.8534115   -4.7877695 
O     4.8133044    1.0956227   -5.9552152 
O     5.5560265    3.0409725   -4.7691731 
H     5.5481748    3.4836069   -3.8615066 
C     4.9405016    0.2361761   -2.8272957 
H     3.9783130    2.1907447   -2.8490342 
C     6.2523355    0.7821821   -2.3070476 
H     5.1120149   -0.6244648   -3.5109162 
H     4.3622357   -0.1613865   -1.9644748 
C     7.4403632    0.7805810   -2.9344089 
C     7.7868441    0.2799571   -4.1486302 
C     9.0781230    0.4225340   -4.5640586 
C     9.9936988    1.0558019   -3.7699279 
C     9.6229215    1.5525104   -2.5557941 
C     8.3398863    1.3986363   -2.1666083 
H     7.0619703   -0.2147191   -4.7878704 
H     9.3786796    0.0366534   -5.5354746 
H    11.0198892    1.1693434   -4.1106875 
H    10.3350475    2.0634344   -1.9166443 
N     7.7499605    1.8529673   -0.9568175 
C     6.3958102    1.4186257   -1.1313423 
H     8.1861230    2.3655645   -0.1563106 
H     5.5965840    1.5977541   -0.4156343 
