48
Energy =
C    -3.7754205    1.6751487   -2.0760967 
C    -2.5081856    1.5742832   -2.5505964 
C    -4.5455544    0.5625205   -1.9416990 
C    -4.0407968   -0.6449405   -2.2828688 
C    -2.7738964   -0.7518499   -2.7576203 
C    -2.0005528    0.3592615   -2.8983315 
H    -1.9034977    2.4724748   -2.6468347 
H    -4.6647613   -1.5247254   -2.1694788 
H    -2.3841485   -1.7309560   -3.0243102 
H    -4.1700597    2.6477801   -1.8030649 
C    -0.5821456    0.2371882   -3.4091441 
C     0.3942328   -0.2315587   -2.3044188 
H    -0.2364245    1.2063119   -3.8360224 
H    -0.5678242   -0.4905292   -4.2521194 
C     1.7532562   -0.5645126   -2.8860573 
O    -5.8549569    0.6313073   -1.4549862 
H    -6.1599101    1.5706860   -1.2244360 
O     2.2801282   -1.8422938   -2.7400379 
N     0.5166284    0.7856536   -1.2453728 
H     0.0213162   -1.1842273   -1.8585468 
H     0.6966596    1.7288721   -1.6667179 
H    -0.3847251    0.8498816   -0.7164990 
N     2.5664597    0.4591633   -3.4680027 
C     3.6435211    1.0100524   -2.6296628 
H     2.3844398    0.7762003   -4.4473533 
C     3.5520636    2.5312974   -2.5653153 
O     3.2565392    3.2522985   -3.7170496 
O     3.8096669    3.2354918   -1.3879385 
H     4.0923911    2.6329681   -0.6292111 
C     4.9876958    0.5361861   -3.2114597 
H     3.5453756    0.6351345   -1.5828725 
C     6.1439632    0.8610493   -2.2924432 
H     5.1472112    0.9775243   -4.2201673 
H     4.9435784   -0.5674567   -3.3604307 
C     6.9000832    1.9712401   -2.2999147 
C     6.8567776    3.0521338   -3.1209986 
C     7.7422437    4.0664829   -2.9043319 
C     8.6477740    3.9871592   -1.8826819 
C     8.6716132    2.8932302   -1.0694584 
C     7.7855050    1.9026066   -1.3040707 
H     6.1324742    3.1254191   -3.9271774 
H     7.7217213    4.9457916   -3.5439998 
H     9.3472178    4.8023673   -1.7147670 
H     9.3791923    2.8172238   -0.2508711 
N     7.6337261    0.6952052   -0.5706883 
C     6.5456766    0.0818023   -1.2731206 
H     8.1692676    0.3498795    0.2586262 
H     6.1031246   -0.8755509   -1.0057962 
