48
Energy =
C    -1.8874958    3.4647068    0.3047956 
C    -1.4255957    2.7991864   -0.7839771 
C    -1.2860547    4.6155438    0.7082764 
C    -0.2256167    5.0923455    0.0184964 
C     0.2371353    4.4337977   -1.0736736 
C    -0.3592376    3.2801056   -1.4817096 
H    -1.9143563    1.8783125   -1.0904498 
H     0.2494108    6.0061328    0.3566099 
H     1.0962013    4.8291151   -1.6095434 
H    -2.7377811    3.0731147    0.8525878 
C     0.1662163    2.5312245   -2.6899427 
C     1.3488033    1.5828948   -2.3677928 
H     0.4804924    3.2620353   -3.4685438 
H    -0.6555735    1.9423007   -3.1547062 
C     2.6033530    2.3337878   -1.9455991 
O    -1.7375178    5.3266248    1.8252950 
H    -2.5300968    4.9000902    2.2929299 
O     2.7777657    2.7535882   -0.6300827 
N     0.9637446    0.5602184   -1.3811596 
H     1.6238456    1.0576066   -3.3108770 
H     0.8039578    1.0145252   -0.4488387 
H     0.0630000    0.1107165   -1.6666074 
N     3.5734834    2.7164154   -2.9281117 
C     4.9568912    2.2660755   -2.6899393 
H     3.2692653    3.2329897   -3.7845040 
C     5.9501960    3.0370351   -3.5523265 
O     6.9734663    3.7474743   -2.9390457 
O     5.8939228    3.0137805   -4.9480316 
H     5.0934900    2.5008670   -5.2843950 
C     5.0506385    0.7410545   -2.9269233 
H     5.2462328    2.5021197   -1.6361020 
C     6.4019318    0.2044693   -2.5132226 
H     4.8618437    0.5050848   -3.9969258 
H     4.2600797    0.2110005   -2.3522150 
C     6.7740289   -0.1656651   -1.2780626 
C     6.0594466   -0.1867865   -0.1233058 
C     6.6850397   -0.5966094    1.0173857 
C     8.0005633   -0.9699732    0.9881292 
C     8.6993706   -0.9336575   -0.1822057 
C     8.0574207   -0.5283200   -1.2979443 
H     5.0175757    0.1206640   -0.0946788 
H     6.1360619   -0.6202836    1.9558783 
H     8.4933721   -1.2902795    1.9026886 
H     9.7458311   -1.2163609   -0.2212128 
N     8.6030223   -0.3944475   -2.6029623 
C     7.4665125    0.0977711   -3.3275152 
H     9.5691489   -0.6068759   -2.9426255 
H     7.4811404    0.3991265   -4.3752225 
