48
Energy =
C    -1.3218471    0.9184092   -1.0818918 
C    -0.4918623    0.2760711   -0.2199222 
C    -1.5705504    0.3917303   -2.3108816 
C    -0.9890103   -0.7752339   -2.6676818 
C    -0.1531547   -1.4176572   -1.8140658 
C     0.0953327   -0.8982188   -0.5815438 
H    -0.2793886    0.7167485    0.7546917 
H    -1.1944779   -1.1830212   -3.6503666 
H     0.3211500   -2.3438760   -2.1287131 
H    -1.7798080    1.8577255   -0.7899042 
C     1.0718906   -1.5827149    0.3488405 
C     2.5229217   -1.1367433    0.0650380 
H     0.9870874   -2.6849026    0.2265775 
H     0.8167839   -1.3677969    1.4118646 
C     2.7119393    0.3544809    0.3080703 
O    -2.4131822    1.0299816   -3.2263015 
H    -2.8065360    1.9014712   -2.8870987 
O     2.3553821    0.8817476    1.5438145 
N     3.4601738   -1.9253308    0.8800043 
H     2.7466709   -1.3228087   -1.0062168 
H     3.2801350   -1.7409378    1.8979294 
H     3.3113128   -2.9481821    0.7138782 
N     2.7715602    1.2529693   -0.8030461 
C     4.0996313    1.5480378   -1.3716472 
H     1.8768139    1.6368799   -1.1812229 
C     4.1723330    2.9740032   -1.8837713 
O     4.8537815    3.9362377   -1.1522959 
O     3.5785601    3.3329537   -3.0876468 
H     3.0396821    2.4359049   -3.5495409 
C     4.4386436    0.5296285   -2.4855872 
H     4.8819207    1.5011196   -0.5733378 
C     3.2957033    0.3217436   -3.4727150 
H     4.7349127   -0.4209669   -1.9967877 
H     5.3335633    0.8745160   -3.0536385 
C     2.8636612   -0.8617920   -3.9360166 
C     3.3417600   -2.1131609   -3.6877869 
C     2.7276594   -3.1779277   -4.2753751 
C     1.6590550   -2.9854760   -5.1008669 
C     1.2016847   -1.7268913   -5.3427678 
C     1.8229018   -0.6852109   -4.7460968 
H     4.1979465   -2.2844483   -3.0451927 
H     3.0957687   -4.1846886   -4.0913058 
H     1.1757902   -3.8382197   -5.5718800 
H     0.3552551   -1.5577479   -6.0005666 
N     1.4613767    0.6797223   -4.8842343 
C     2.4315484    1.4316756   -4.0715309 
H     0.6721219    1.0527314   -5.4648741 
H     2.0208967    2.4263447   -4.3473524 
