48
Energy =
C    -1.6306980    3.9262179   -3.0746426 
C    -0.7824064    3.3836957   -2.1654706 
C    -2.9635252    3.6667737   -3.0066113 
C    -3.4377535    2.8652957   -2.0263418 
C    -2.5930606    2.3168075   -1.1167824 
C    -1.2558595    2.5664785   -1.1858377 
H     0.2785905    3.6072504   -2.2371384 
H    -4.5023583    2.6667224   -1.9813638 
H    -2.9951534    1.6755709   -0.3375385 
H    -1.2364897    4.5650883   -3.8575030 
C    -0.3124550    1.9479054   -0.1761461 
C    -0.1747569    0.4187077   -0.3602220 
H    -0.7041255    2.1692718    0.8399473 
H     0.6946326    2.4202172   -0.2300264 
C     0.5920014    0.0568790   -1.6222613 
O    -3.8661710    4.2125713   -3.9264188 
H    -3.4240068    4.7819374   -4.6397258 
O    -0.0440542   -0.7408742   -2.5675980 
N     0.4555095   -0.1687776    0.8370285 
H    -1.1844833   -0.0376414   -0.4923003 
H     1.3470533    0.3368286    1.0575396 
H    -0.1809163   -0.0531891    1.6606550 
N     2.0268986    0.0825007   -1.5994254 
C     2.6685535    0.4663963   -2.8826484 
H     2.3215563   -0.8697298   -1.2929957 
C     2.1859047    1.8141251   -3.4175267 
O     2.9196997    2.9554915   -3.1174285 
O     1.0498015    1.9513965   -4.2153085 
H     0.4731775    1.1215095   -4.2080635 
C     2.6382621   -0.6583115   -3.9574027 
H     3.7418745    0.6553796   -2.6550069 
C     3.4135814   -1.8870557   -3.5298216 
H     3.1058452   -0.2701079   -4.8902677 
H     1.6024328   -0.9210326   -4.2475616 
C     2.9207935   -3.0635205   -3.0988009 
C     1.6353038   -3.4783434   -2.9503915 
C     1.4092762   -4.7391666   -2.4792024 
C     2.4577482   -5.5586954   -2.1685138 
C     3.7392491   -5.1238825   -2.3262774 
C     3.9380018   -3.8735883   -2.7930108 
H     0.7957735   -2.8347373   -3.1938977 
H     0.3887191   -5.0937397   -2.3468494 
H     2.2690294   -6.5617620   -1.7919216 
H     4.5826794   -5.7619732   -2.0825166 
N     5.1860181   -3.2352189   -3.0201629 
C     4.7567901   -1.9532924   -3.4942984 
H     6.1559393   -3.6032324   -2.8780090 
H     5.4308649   -1.1469837   -3.7783880 
