48
Energy =
C     1.6280196   -6.6423329   -1.4454900 
C     1.3381838   -5.4205262   -0.9311922 
C     1.5564569   -6.8534481   -2.7869248 
C     1.1953284   -5.8387661   -3.6048204 
C     0.9054809   -4.6143814   -3.0960163 
C     0.9722213   -4.3987546   -1.7536625 
H     1.4073857   -5.2637577    0.1422043 
H     1.1425563   -6.0208922   -4.6723470 
H     0.6195073   -3.8105726   -3.7685791 
H     1.9194684   -7.4482291   -0.7807845 
C     0.6645534   -3.0290611   -1.1875935 
C     1.8594326   -2.0509444   -1.3154287 
H     0.3573064   -3.1029935   -0.1207204 
H    -0.2196360   -2.6142313   -1.7210012 
C     1.4448959   -0.6007735   -1.0046077 
O     1.8497949   -8.0997354   -3.3503227 
H     2.1088820   -8.8060879   -2.6702278 
O     0.1635017   -0.3692795   -0.5099505 
N     2.9588896   -2.4849995   -0.4367055 
H     2.2006138   -2.0779713   -2.3697302 
H     2.6105857   -2.5957164    0.5462770 
H     3.3212206   -3.4160623   -0.7501324 
N     2.2038664    0.5733550   -1.3832843 
C     3.5940742    0.3658396   -1.8671071 
H     2.1947798    1.1687792   -0.5216953 
C     4.5646754    1.4387398   -1.3584810 
O     4.1094177    2.7268708   -1.1008041 
O     5.9346911    1.1865692   -1.2550368 
H     6.1603814    0.2151690   -1.4155674 
C     3.5846374    0.3424115   -3.4120222 
H     4.0151336   -0.5886210   -1.4995297 
C     3.1061134    1.6545919   -4.0049283 
H     2.9170708   -0.4683787   -3.7686049 
H     4.5980452    0.0903458   -3.7920857 
C     3.8657205    2.6873843   -4.4078336 
C     5.2167426    2.8308098   -4.4076401 
C     5.7444525    4.0034211   -4.8623518 
C     4.9249213    5.0049350   -5.3038017 
C     3.5717833    4.8414867   -5.2897032 
C     3.0733453    3.6720313   -4.8367383 
H     5.8729881    2.0478742   -4.0388280 
H     6.8227169    4.1466078   -4.8620805 
H     5.3536822    5.9396009   -5.6572710 
H     2.9074655    5.6308303   -5.6253361 
N     1.7044785    3.3119284   -4.7201409 
C     1.8137353    1.9961713   -4.1620002 
H     0.8495570    3.8541881   -4.9832461 
H     0.9652332    1.3810175   -3.8680713 
