48
Energy =
C     0.8896775    4.2392051    1.3296902 
C     1.3034666    3.0475086    0.7706850 
C     0.5734224    4.3538040    2.6383872 
C     0.6238202    3.2691081    3.4268788 
C     0.9699776    2.0672799    2.9186374 
C     1.2874046    1.9233173    1.5961392 
H     1.7291597    3.2951672   -1.8955435 
H     0.3674444    3.3721968    4.4758894 
H     0.9697507    1.2130236    3.5907090 
H     0.8584951    5.1174159    0.6979971 
C     1.5742653    0.5089561    1.1188382 
C     0.6636605    0.0570123   -0.0348761 
H     1.4211904   -0.2258155    1.9393629 
H     2.6430984    0.4140257    0.8925306 
C     0.7204132    1.0397480   -1.1736128 
O     0.1886813    5.5773171    3.2011411 
H     0.2206538    6.3631910    2.5599773 
O    -0.1653517    2.1567581   -1.0833640 
N     1.0199042   -1.3059823   -0.4634260 
H    -0.3993240    0.0702097    0.3116357 
H     2.0492918   -1.3794449   -0.6399741 
H     0.7877428   -1.9835578    0.3004530 
N     1.9398704    1.1207320   -2.0116165 
C     3.3253881    1.5398796   -1.4828745 
H     2.0034641    0.1764933   -2.4558124 
C     3.5201694    2.8980553   -0.6637723 
O     3.8241576    4.1448494   -1.2037000 
O     2.5322831    3.9590067   -0.5586885 
H     0.7349825    2.7092598   -0.9273221 
C     4.2696709    1.6439760   -2.7040704 
H     3.7456484    0.7366305   -0.8495413 
C     4.4888565    0.3241773   -3.4126488 
H     5.2638816    2.0338679   -2.3856241 
H     3.8674906    2.4124304   -3.4005684 
C     3.8188268   -0.1478127   -4.4776249 
C     2.7937130    0.4029003   -5.1785093 
C     2.2743606   -0.2991021   -6.2271354 
C     2.7806182   -1.5266552   -6.5543596 
C     3.8059647   -2.0618890   -5.8327526 
C     4.3025985   -1.3483094   -4.8006784 
H     2.3762924    1.3683760   -4.9051344 
H     1.4478930    0.1151343   -6.8013299 
H     2.3595012   -2.0823437   -7.3889400 
H     4.2136297   -3.0378201   -6.0744650 
N     5.3497753   -1.7282150   -3.9191808 
C     5.4032687   -0.5914991   -3.0479748 
H     5.9237534   -2.6028892   -3.9118442 
H     6.0938473   -0.4894329   -2.2132190 
