48
 energy: -9.207232930392 gnorm: 0.000753696999 xtb: 6.6.0 (2ccbbd7)
C            3.70314436462435       -2.45757767298322        1.78960397692877
C            3.06321199044116       -1.28233015324564        2.10372351027686
C            5.06354193685201       -2.46436513920714        1.47996433286886
C            5.75359259041348       -1.25259375224564        1.50495345276165
C            5.10849236211503       -0.08261195581199        1.82719516908799
C            3.75452884212442       -0.07923201037371        2.13105317992150
H            2.00533690548053       -1.28070937398975        2.30419348575907
H            6.79773079871709       -1.25428146525255        1.24773538137321
H            5.64073191140808        0.85297606007224        1.79171372148417
H            3.15629488751658       -3.38299634535876        1.76589066354577
C            3.03037276889367        1.20855254758644        2.37064553949846
C            2.62493264286118        1.91753164490833        1.07405504807584
H            3.65251612835905        1.87105361601147        2.98034131187205
H            2.12816955960286        1.01658242806705        2.95878369699469
C            1.68816444340076        1.05435767641299        0.25918033648181
O            5.73215951854884       -3.62549911647001        1.14269372044761
H            5.11766454719490       -4.39013903142363        1.18081214621865
O            0.54165794346375        0.98383742784236        0.65248115732434
N            1.94222623097745        3.17611032361728        1.33314414321606
H            3.52334000169763        2.14871673178494        0.48496913293966
H            0.98378528934497        2.95874048340610        1.59166676419023
H            2.37990770035022        3.68826793543761        2.08975931180311
N            2.11179575285781        0.37453953532628       -0.86679460376959
C            3.51263258051350        0.07983074506672       -1.19034142172652
H            1.44464877291641       -0.23776168823358       -1.33069012308602
C            4.29300599733907        1.34504201590203       -1.48412797782715
O            5.16902319797912        1.62596207367753       -0.69226234162514
O            3.99603689303648        2.07823679771813       -2.58216195561546
H            3.06455975751557        1.90106568535074       -3.17657991061212
C            3.64653587090068       -0.90039455519596       -2.35464355622335
H            3.94902753245817       -0.37338577069404       -0.29128603229477
C            3.13939930987907       -0.29295387807734       -3.60402093881423
H            3.09818960731786       -1.82309140929071       -2.14097467123603
H            4.69765815506755       -1.17677827764804       -2.48779793664231
C            3.30495834752979       -0.71546073979591       -4.90761508580062
C            3.92383854705901       -1.87140772547235       -5.44739249822961
C            3.89628196833831       -2.06141885497415       -6.80170272119258
C            3.26959147446085       -1.14183177768534       -7.65612901511247
C            2.66281270534810       -0.00426504704732       -7.16844176255612
C            2.68122169781772        0.23418219372252       -5.79856502319883
H            4.39717741638210       -2.57946839175759       -4.79096501909959
H            4.36358927547413       -2.93601632594171       -7.22292726242627
H            3.26692114827330       -1.32796738630603       -8.71716175980374
H            2.19163306786639        0.70512573489024       -7.82468502857716
N            2.16928448307555        1.28232074222560       -5.05655992015667
C            2.38338607767941        0.98518583808621       -3.65138282864022
H            1.32034349760464        1.79911614861700       -5.30137130616661
H            2.28311769135250        1.91698659009639       -2.84279485776906
