48
Energy =
C    -1.2076320    3.1546828    1.4052081 
C    -0.7071117    2.0744762    0.7540566 
C    -0.9865146    4.4061630    0.9223531 
C    -0.2620912    4.5677104   -0.2074333 
C     0.2376125    3.4908478   -0.8648005 
C     0.0146639    2.2343421   -0.3896364 
H    -0.8793435    1.0816874    1.1603679 
H    -0.0841731    5.5725829   -0.5727782 
H     0.8243957    3.6442824   -1.7648721 
H    -1.7801198    3.0143935    2.3154711 
C     0.5911956    1.0273076   -1.1039302 
C     2.0220618    0.6882461   -0.6319152 
H     0.5818612    1.1956985   -2.2026832 
H    -0.0647356    0.1454864   -0.9329453 
C     3.0138252    1.7963086   -0.9792891 
O    -1.4925472    5.5411905    1.5651786 
H    -1.9993325    5.3377033    2.4199291 
O     3.7340836    2.4494619    0.0146653 
N     1.9947194    0.3816471    0.8079135 
H     2.3695557   -0.2116074   -1.1842236 
H     1.4801041   -0.5155022    0.9628745 
H     2.9726006    0.2304425    1.1526204 
N     3.3472149    2.0577197   -2.3510539 
C     4.7518795    1.8360670   -2.7503114 
H     2.5991388    2.3392934   -3.0208493 
C     5.4343515    3.1328501   -3.1623902 
O     6.7137566    3.3951454   -2.6893570 
O     4.8677136    4.0175963   -4.0820745 
H     3.9535386    3.7186041   -4.3792899 
C     4.8109981    0.8000799   -3.8922798 
H     5.3587753    1.4725120   -1.8857079 
C     4.2190622   -0.5271982   -3.4787176 
H     5.8678651    0.6445343   -4.2077090 
H     4.2705707    1.1931264   -4.7823484 
C     4.7753312   -1.4376751   -2.6650727 
C     5.9848028   -1.4305827   -2.0482624 
C     6.3095163   -2.4863234   -1.2482398 
C     5.4313515   -3.5211441   -1.0792539 
C     4.2229460   -3.5070969   -1.7105124 
C     3.9253907   -2.4523163   -2.4977616 
H     6.6859379   -0.6115602   -2.1831878 
H     7.2724247   -2.5050098   -0.7423308 
H     5.6984786   -4.3589119   -0.4395475 
H     3.5153230   -4.3199881   -1.5867110 
N     2.7259590   -2.2367594   -3.2285632 
C     2.9988188   -0.9657783   -3.8345523 
H     1.8723850   -2.8382553   -3.2929581 
H     2.3047412   -0.4251390   -4.4744721 
