48
 energy: -8.968150752686 gnorm: 0.000586362873 xtb: 6.6.0 (2ccbbd7)
C           -0.11128545152958       -3.10716365594114       -4.78346498227100
C            0.31274943147954       -2.49961162073782       -3.62574615424798
C           -1.47210579287423       -3.28333528631819       -5.03393827963584
C           -2.38186100121296       -2.82919461355413       -4.07977423229566
C           -1.94802920424432       -2.22075099913551       -2.92596812962898
C           -0.59337317182133       -2.04338691396039       -2.68012942509501
H            1.36370885898927       -2.33972047642898       -3.45678615349586
H           -3.43117503284627       -2.96542091498610       -4.27101661049271
H           -2.66318538571534       -1.86561297605321       -2.20381923579498
H            0.60383437148712       -3.44303598215957       -5.51279167003377
C           -0.13481965172841       -1.31184222054973       -1.45328631752281
C            0.13262818094857        0.19055159139961       -1.66468522817623
H            0.77406886986510       -1.78561122445226       -1.06822315094723
H           -0.89056633876753       -1.44511927131834       -0.67127248604613
C            1.57200079726395        0.49222271291120       -2.16463854998478
O           -1.93282134740929       -3.88518691484492       -6.18997315218154
H           -1.17406901941620       -4.15184802585562       -6.75318799596627
O            1.94752679146866       -0.34020331036927       -3.29435337336297
N           -0.77179321073417        0.82557257122534       -2.70343142920897
H            0.00836060852122        0.72970021114950       -0.71433852226519
H           -1.12555164411508        0.09215601954833       -3.34156587378834
H           -1.60480256714344        1.26950032069614       -2.26761010368279
N            2.62684657953916        0.58699285841245       -1.12041207922449
C            3.95955762444649        1.15725764834951       -1.43224777061401
H            2.24388274189293        1.17242594925840       -0.36799224221741
C            3.87487311248929        2.67457297654864       -1.39462229573924
O            2.84463850397134        3.16274434242030       -0.98073519251053
O            4.95235658033488        3.39170967077208       -1.80611434796829
H            5.70350827355240        2.81025937479149       -2.05415314445727
C            4.60028472179368        0.61146485123006       -2.72249974625681
H            4.60522857936361        0.86497815421856       -0.58886203792169
C            3.87083018983401        0.96894728400133       -3.96519680294178
H            4.63162204623029       -0.48113135770767       -2.65622165601101
H            5.64132577623624        0.93574134928364       -2.80909362292876
C            2.37233361507726        0.83979498205470       -4.03475071843825
C            1.47622198826274        1.72567391512202       -3.12148102413813
C            0.00570711684577        1.84111924348922       -3.56599210079604
C           -0.23336240631524        1.62257300047357       -5.03155403235043
C            0.72384844905152        1.22838055395399       -5.91769740115207
C            2.01153532292476        0.91082694744523       -5.49298380198592
H            1.94988567596866        2.64141563737720       -2.74829722411191
H           -0.33177161301252        3.07144080731549       -3.35731801928642
H           -1.22230830296002        1.83564931795461       -5.39936045726742
H            0.51057661422454        1.20653115253644       -6.97251384907069
N            3.22666490430439        0.94560328470890       -6.14517805618628
C            4.31091672096043        0.97458739992216       -5.24531777876292
H            3.32627784945051        1.11296249549483       -7.14644671325569
H            5.34500728633728        0.92977792212548       -5.54276799749124
