48
Energy =
C     4.6392001   -1.2658703   -5.7831963 
C     4.1377300   -1.3997734   -4.5199239 
C     3.8294893   -1.3841406   -6.8646779 
C     2.5168347   -1.6355905   -6.6881259 
C     2.0029481   -1.7943025   -5.4441764 
C     2.7931158   -1.6833645   -4.3364916 
H     5.1852294   -1.1231914   -3.2018985 
H     1.8813296   -1.7264153   -7.5610434 
H     0.9471933   -2.0303280   -5.3506788 
H     5.6928809   -1.0523658   -5.9181349 
C     2.1676535   -2.0414020   -2.9682605 
C     2.4135483   -1.1707902   -1.6846625 
H     2.5147774   -3.0765783   -2.7541613 
H     1.0624612   -2.1239533   -3.0807912 
C     1.9535253    0.3013757   -1.7905827 
O     4.3226233   -1.2503347   -8.1680272 
H     5.3175914   -1.0645711   -8.2087140 
O     0.6070114    0.5902235   -1.9572692 
N     1.7611646   -1.8189892   -0.5320055 
H     3.5004985   -1.1613257   -1.4708083 
H     0.7174193   -1.8117626   -0.6595797 
H     2.0529386   -2.8234079   -0.4531247 
N     2.8934811    1.4058394   -1.6055351 
C     3.7740777    1.7429429   -2.8131808 
H     3.4701274    1.2131706   -0.7555066 
C     3.0158144    2.4601807   -3.9422562 
O     3.6617175    2.6291307   -5.1611462 
O     1.7733468    3.0675384   -3.7696610 
H     1.3836390    2.9065498   -2.8529332 
C     4.6919087    0.5510724   -3.4432891 
H     4.4206416    2.5835861   -2.4628569 
C     6.1110000    1.0797625   -3.2828432 
H     3.7758638    0.2235322   -3.1277988 
H     5.2458736   -2.5672545   -3.4511009 
C     6.9139088    0.9490132   -2.2186310 
C     6.6874710    0.3433878   -1.0254321 
C     7.6862203    0.3541565   -0.0961893 
C     8.8795143    0.9639834   -0.3709305 
C     9.0816306    1.5680908   -1.5765869 
C     8.0790979    1.5435340   -2.4791087 
H     5.7418669   -0.1369004   -0.8009705 
H     7.5350708   -0.1237677    0.8695309 
H     9.6709076    0.9681667    0.3751519 
H    10.0215777    2.0573834   -1.8099521 
N     8.0786780    2.1102406   -3.7824900 
C     6.7623506    1.7627052   -4.2362771 
H     8.8361327    2.6380678   -4.2758022 
H     6.3392178    2.0315213   -5.2089638 
