48
Energy =
C     1.0593260    0.1113342    3.2531162 
C     2.0246844    0.8610570    2.6633172 
C    -0.0956602    0.6917588    3.6744498 
C    -0.2776470    2.0197125    3.5009638 
C     0.6827125    2.7742631    2.9109164 
C     1.8436020    2.1995349    2.4881331 
H     2.9380185    0.3767035    2.3320936 
H    -1.2042692    2.4700324    3.8388877 
H     0.5113286    3.8389064    2.7776179 
H     1.2127522   -0.9544378    3.3851288 
C     2.9121771    3.0390808    1.8157801 
C     2.8240108    3.0200199    0.2673455 
H     3.9184944    2.6929314    2.1423037 
H     2.8403510    4.0920288    2.1686276 
C     3.1455417    1.6484155   -0.3173035 
O    -1.1089853   -0.0510976    4.2883477 
H    -0.9040702   -1.0414454    4.3660653 
O     2.1873184    0.9219673   -1.0156478 
N     1.5200636    3.5339198   -0.1924134 
H     3.6196795    3.6907051   -0.1376383 
H     0.7570961    2.8525199    0.0395415 
H     1.2947957    4.4442314    0.2723722 
N     4.4730622    1.1156083   -0.2099408 
C     5.3827463    1.2325741   -1.3671413 
H     4.7842287    0.6912843    0.6907681 
C     5.5331406    2.6725355   -1.8608682 
O     6.6651326    3.3888654   -1.4999845 
O     4.5284313    3.3410456   -2.5616255 
H     3.7228479    2.7572320   -2.7256083 
C     4.9720739    0.2210581   -2.4605063 
H     6.4009785    0.9457570   -1.0160634 
C     6.0722084    0.0235407   -3.4824936 
H     4.0221011    0.5134458   -2.9529255 
H     4.7596032   -0.7589171   -1.9779129 
C     6.1915191    0.6172235   -4.6821297 
C     5.3718659    1.5015831   -5.3067976 
C     5.7324573    1.9636828   -6.5382496 
C     6.8928971    1.5388454   -7.1231323 
C     7.7000865    0.6489709   -6.4794719 
C     7.3218711    0.2066775   -5.2617161 
H     4.4512464    1.8438017   -4.8487023 
H     5.0950283    2.6776532   -7.0543156 
H     7.1747978    1.9150111   -8.1032508 
H     8.6256853    0.3041906   -6.9274028 
N     8.0182495   -0.7096725   -4.4293700 
C     7.1435152   -0.7680559   -3.2958431 
H     8.9207748   -1.2084508   -4.6019302 
H     7.3340021   -1.3582144   -2.4027007 
