48
Energy =
C     2.9855006    5.7168688    2.3262247 
C     3.2831930    4.4692878    1.8817270 
C     1.9618681    5.9048599    3.2012277 
C     1.2421669    4.8415218    3.6257687 
C     1.5345571    3.5917973    3.1847052 
C     2.5598932    3.3978019    2.3106785 
H     4.1075001    4.3361543    1.1810451 
H     0.4277592    5.0051554    4.3228414 
H     0.9406291    2.7518730    3.5350880 
H     3.5683625    6.5636327    1.9794004 
C     2.8815852    2.0104547    1.8008938 
C     2.3359537    1.7775500    0.3678277 
H     2.4815346    1.2322049    2.4886861 
H     3.9879700    1.8881394    1.8177085 
C     2.9248717    0.5169881   -0.2650215 
O     1.6283331    7.1769147    3.6778045 
H     2.2144250    7.9198539    3.3127125 
O     2.0890609   -0.5349505   -0.6236656 
N     0.8613287    1.7337767    0.3858925 
H     2.6534319    2.6094232   -0.2995539 
H     0.5288398    0.9837968    1.0381142 
H     0.4735551    2.6474376    0.7195390 
N     4.3435316    0.2795456   -0.2788583 
C     5.2110039    1.0402719   -1.2017221 
H     4.7354890   -0.3885818    0.4214234 
C     5.3102694    2.5091342   -0.8095874 
O     4.6007223    3.4727927   -1.5154778 
O     6.0315552    2.9109713    0.3131175 
H     6.5065404    2.1342387    0.7518243 
C     4.7678517    0.8381725   -2.6690504 
H     6.2477297    0.6459364   -1.1089369 
C     5.0003336   -0.5844648   -3.1277547 
H     5.3347102    1.5269595   -3.3339242 
H     3.6968778    1.1104062   -2.7962164 
C     6.1672583   -1.1174188   -3.5229745 
C     7.3929213   -0.5432420   -3.6345248 
C     8.4332537   -1.3148443   -4.0624539 
C     8.2354533   -2.6332881   -4.3679913 
C     6.9957565   -3.1880698   -4.2472261 
C     5.9827951   -2.4037200   -3.8230715 
H     7.5512793    0.5033649   -3.3915275 
H     9.4247200   -0.8792529   -4.1611351 
H     9.0694923   -3.2419962   -4.7081013 
H     6.8212345   -4.2321810   -4.4836022 
N     4.6286488   -2.7819994   -3.6242155 
C     4.0617504   -1.5464156   -3.1683439 
H     4.1654718   -3.7075859   -3.7716268 
H     3.0191801   -1.4176026   -2.8877608 
