48
 energy: -9.064286872419 gnorm: 0.000663769098 xtb: 6.6.0 (2ccbbd7)
C            0.91422643290320       -0.19653132263887        3.01076737674440
C            1.57384769046122        0.40735863979924        1.96692039694791
C            1.11343773615790        0.23725497663464        4.32150032651436
C            1.99218450263506        1.29800838845189        4.53771969220868
C            2.64663144745147        1.89574988218176        3.48717716933589
C            2.45031804720770        1.46011267882150        2.18362584197821
H            1.38764182033932        0.08321341614643        0.95783415351578
H            2.14416977475826        1.63545633018166        5.54739709009743
H            3.32314848290634        2.71233858618785        3.67264608101600
H            0.23179427502076       -1.00643951261223        2.82464795670458
C            3.18058926045446        2.11302983310941        1.04772064168861
C            2.26845230227470        2.73850698822225       -0.02536408926715
H            3.84153827390020        1.37580060821464        0.58111333738334
H            3.84077215972457        2.88625987245654        1.45488805186141
C            1.73992185469512        1.69098339708705       -0.98002686978844
O            0.47066671666798       -0.34895495614735        5.39542399021626
H           -0.11438485764224       -1.07255255216985        5.08298667238838
O            0.69289343445019        1.14299763798597       -0.70259920396439
N            1.13796265042429        3.44891390649889        0.55260028170336
H            2.83911728373438        3.47698331432585       -0.61004627729947
H            0.41233034054922        2.76847251393396        0.76253733271403
H            1.40041016746235        3.91785304342426        1.41161951698603
N            2.44816227034769        1.36426219544843       -2.11475649759291
C            3.72138250068177        1.98048533640245       -2.51352658506526
H            2.06284371167184        0.67547851323973       -2.75720578867933
C            3.51213599686702        3.42464087913454       -2.86337821553368
O            4.53362571628036        4.30871730276773       -2.68466325219949
O            2.28134518271180        3.79793602736760       -3.35226329047275
H            1.63276766659968        3.06716655780676       -3.22911615171464
C            4.39295043971077        1.20280891535008       -3.66847725355512
H            4.37980499398585        1.93051010284248       -1.63581008799702
C            5.87357500470516        1.04420211664493       -3.52883045665350
H            4.16185357411887        1.69248115722952       -4.61989784022225
H            3.94748268233687        0.20453801106199       -3.73348583906349
C            6.81278687872238        2.01214339516006       -3.06482440773696
C            6.67988892675111        3.33040252436418       -2.61533179678594
C            7.78942296990682        4.01404271800802       -2.21790294657279
C            9.05949778512463        3.41438501868080       -2.25365499719596
C            9.22082130457857        2.12846943093675       -2.69327197802625
C            8.08824212755903        1.41410938042998       -3.10594149211938
H            5.56052581912751        3.83727807315850       -2.63523619001715
H            7.68844474480233        5.03115910524116       -1.87778975158332
H            9.91895615105434        3.97972606552817       -1.93354555422697
H           10.18857770483196        1.66123848115016       -2.72921631024636
N            7.92646162031064        0.12866729406166       -3.59023376656956
C            6.59346743682011       -0.08217602917306       -3.84552634395416
H            8.68584533918803       -0.53952021389707       -3.73394861304139
H            6.17984739642059       -0.99621393166603       -4.23999425430913
