48
Energy =
C     1.7302269   -0.9885656    1.5982318 
C     2.4908774    0.0703176    1.2242973 
C     0.7175866   -0.8209489    2.4892109 
C     0.4724867    0.4077352    2.9984792 
C     1.2294525    1.4714948    2.6263723 
C     2.2449259    1.3097683    1.7347986 
H     3.2921802   -0.0857504    0.5106105 
H    -0.3411600    0.5283333    3.7051819 
H     1.0113293    2.4495037    3.0457862 
H     1.9330438   -1.9693038    1.1815701 
C     3.0746390    2.4993123    1.2921436 
C     2.4615965    3.2802713    0.0875350 
H     4.1081792    2.1702523    1.0573790 
H     3.2172718    3.1853734    2.1560158 
C     1.7701388    2.3789954   -0.9528065 
O    -0.0815182   -1.8930113    2.9000107 
H     0.1497138   -2.7733760    2.4538233 
O     0.3969935    2.1841167   -0.8369529 
N     1.5292399    4.3082384    0.5882079 
H     3.2678328    3.8237885   -0.4510172 
H     0.7060434    3.8584927    1.0566805 
H     1.9978919    4.9455889    1.2736504 
N     2.4347765    1.6309779   -2.0008680 
C     3.9178943    1.6421359   -2.0344827 
H     2.0842899    0.6576729   -1.8619126 
C     4.4606241    2.9638318   -2.5591498 
O     5.4091125    3.6382295   -1.8016739 
O     4.0300036    3.5231545   -3.7576670 
H     3.2778252    2.9811495   -4.1584114 
C     4.4304130    0.4753877   -2.9167245 
H     4.3473920    1.5086625   -1.0241344 
C     4.3839700   -0.8466904   -2.1792332 
H     5.4882293    0.6611506   -3.2170746 
H     3.8503107    0.4263364   -3.8634772 
C     3.4271382   -1.7883060   -2.2448569 
C     2.3007558   -1.8402684   -3.0026211 
C     1.4704292   -2.9126121   -2.8578351 
C     1.7746204   -3.9072038   -1.9702920 
C     2.9117343   -3.8361068   -1.2222426 
C     3.7175127   -2.7658576   -1.3837191 
H     2.0524721   -1.0508723   -3.7063544 
H     0.5600609   -2.9756769   -3.4502817 
H     1.1066184   -4.7582901   -1.8608223 
H     3.1670027   -4.6161470   -0.5128268 
N     4.9274800   -2.4925870   -0.6921003 
C     5.2937546   -1.2320922   -1.2666654 
H     5.4100888   -3.0540352    0.0472574 
H     6.1763372   -0.6606192   -0.9852313 
