48
Energy =
C    -2.3326304    0.0646421   -5.1000758 
C    -1.9600716   -0.5799044   -3.9652614 
C    -1.4057836    0.7164854   -5.8520342 
C    -0.1114445    0.7183635   -5.4620098 
C     0.2668152    0.0697015   -4.3330540 
C    -0.6555444   -0.5811129   -3.5726734 
H    -2.7136758   -1.0908303   -3.3731649 
H     0.6190217    1.2503779   -6.0605998 
H     1.3103616    0.0877124   -4.0382272 
H    -3.3736199    0.0593589   -5.4036890 
C    -0.2400977   -1.2887808   -2.2974020 
C    -0.1962059   -0.3645667   -1.0530704 
H     0.7587756   -1.7551279   -2.4425953 
H    -0.9357448   -2.1324481   -2.0961470 
C     0.9528447    0.6339083   -1.0995976 
O    -1.7574288    1.3871471   -7.0287494 
H    -2.7483051    1.3553145   -7.2396114 
O     0.8543225    1.6894296   -1.7442683 
N    -1.4891489    0.3004595   -0.8256859 
H     0.0082749   -1.0094230   -0.1698724 
H    -1.6479895    1.0127892   -1.5790636 
H    -2.2650286   -0.3973417   -0.8883312 
N     2.2340170    0.2864031   -0.5453305 
C     3.3819612    0.7357614   -1.3511140 
H     2.3223627   -0.2918640    0.3205983 
C     2.9362606    1.8119019   -2.3422092 
O     3.8157523    2.2725739   -3.3171015 
O     1.7790863    2.2551726   -2.2958391 
H     1.3750335    2.4782873   -1.4085992 
C     3.9946152   -0.4776376   -2.0776833 
H     4.1378874    1.2092147   -0.6875569 
C     4.5610009   -1.4827983   -1.1023110 
H     4.8005521   -0.1446686   -2.7698727 
H     3.2160525   -0.9602320   -2.7086961 
C     5.7347025   -1.4024606   -0.4573276 
C     6.7030042   -0.4533507   -0.5274480 
C     7.8153323   -0.6051566    0.2473310 
C     7.9405292   -1.6895937    1.0715216 
C     6.9535315   -2.6288909    1.1262565 
C     5.8635924   -2.4568721    0.3492169 
H     6.6040387    0.4090267   -1.1805187 
H     8.6062269    0.1403810    0.2096092 
H     8.8299783   -1.8029793    1.6864258 
H     7.0359691   -3.4934905    1.7760886 
N     4.7264679   -3.3047182    0.2627014 
C     3.9286320   -2.5974042   -0.6958917 
H     4.5286518   -4.1991600    0.7674478 
H     2.9424895   -2.9127867   -1.0297153 
