48
Energy =
C    -2.8192709   -1.7434676   -1.4772012 
C    -1.6095839   -2.1923414   -1.0481890 
C    -2.9746685   -0.4433884   -1.8551905 
C    -1.9189719    0.4005982   -1.7964983 
C    -0.7168816   -0.0524284   -1.3668554 
C    -0.5451101   -1.3464431   -1.0039133 
H    -1.5027358   -3.2295323   -0.7420770 
H    -2.0463370    1.4352176   -2.0948933 
H     0.2678847    0.5920685   -1.2927504 
H    -3.6617222   -2.4255098   -1.5149805 
C     0.8158803   -1.8070877   -0.4951822 
C     2.0130082   -1.2017916   -1.2876652 
H     0.8734025   -2.9161043   -0.5591803 
H     0.9068890   -1.5387762    0.5801629 
C     2.2266492    0.3117444   -1.0092217 
O    -4.2040981    0.0470532   -2.3065201 
H    -4.9464506   -0.6435755   -2.3086070 
O     1.1796913    1.2083196   -1.2277677 
N     3.2256767   -2.0074146   -1.0459984 
H     1.7565860   -1.2656663   -2.3700451 
H     3.3353018   -2.1886558   -0.0181834 
H     3.1126525   -2.9441953   -1.5030540 
N     3.4904697    0.8556836   -0.5895725 
C     4.2472642    1.5500664   -1.6596822 
H     4.0726000    0.0978509   -0.1702395 
C     3.7680239    2.9693049   -1.9654118 
O     4.2006973    3.5767834   -3.1382787 
O     2.9983035    3.7240130   -1.0828901 
H     2.6598706    3.1688916   -0.3102500 
C     4.4995738    0.6565691   -2.9126834 
H     5.2587691    1.7502256   -1.2388129 
C     3.3350826    0.3962956   -3.8676493 
H     4.8732551   -0.3197597   -2.5324633 
H     5.3210935    1.1082333   -3.5122247 
C     3.2351344   -0.6731301   -4.6812601 
C     4.0699561   -1.7372207   -4.8282225 
C     3.7328704   -2.7094736   -5.7229357 
C     2.5817781   -2.6080244   -6.4524201 
C     1.7610349   -1.5324617   -6.2928995 
C     2.1156492   -0.5838877   -5.4015514 
H     4.9875799   -1.8287534   -4.2562595 
H     4.3839326   -3.5701843   -5.8577013 
H     2.3208196   -3.3869587   -7.1645477 
H     0.8450047   -1.4349370   -6.8659531 
N     1.4070408    0.6029239   -5.0927923 
C     2.2669042    1.1912697   -4.1075257 
H     0.4997220    0.9568189   -5.4752866 
H     2.0461020    2.1397464   -3.6266067 
