48
Energy =
C    -1.9780327    2.9723266    2.1576072 
C    -0.7851171    2.3208626    2.1216027 
C    -2.4361250    3.6259575    1.0532452 
C    -1.6959025    3.6257177   -0.0786715 
C    -0.5079519    2.9753824   -0.1073671 
C    -0.0486160    2.3090507    0.9775999 
H    -0.4253704    1.8153370    3.0140314 
H    -2.0642764    4.1493237   -0.9532075 
H     0.2061462    2.8991807   -1.0415925 
H    -2.5611309    2.9732402    3.0722752 
C     1.3162245    1.6365520    0.9204381 
C     1.6210604    0.9138811   -0.4292119 
H     1.3912937    0.8933257    1.7447119 
H     2.1014836    2.4041534    1.1123555 
C     1.8384554    1.8892481   -1.6065969 
O    -3.6594819    4.3032154    1.0556540 
H    -4.1490440    4.2628964    1.9430674 
O     0.8646149    2.8382939   -1.9227972 
N     2.7703906    0.0116146   -0.2409220 
H     0.7344070    0.3023578   -0.7202900 
H     3.5507447    0.5236720    0.2401011 
H     2.4976039   -0.7774438    0.3917370 
N     2.8717046    1.6788084   -2.5742589 
C     4.2635539    2.0297279   -2.2162429 
H     2.5842291    1.3397662   -3.5179240 
C     4.3566986    3.1830616   -1.2184407 
O     5.1374471    3.0413271   -0.0807331 
O     3.7510623    4.4164281   -1.4585737 
H     3.0931976    4.3527522   -2.2240503 
C     5.0547984    2.3450414   -3.5070645 
H     4.7286014    1.1466059   -1.7222663 
C     6.5518345    2.3213844   -3.2726944 
H     4.7406941    3.3238111   -3.9301164 
H     4.8141076    1.5826598   -4.2811071 
C     7.3297460    3.3255941   -2.8313263 
C     7.0061607    4.6006975   -2.4945180 
C     7.9986190    5.4302034   -2.0579135 
C     9.2860763    4.9785432   -1.9693841 
C     9.5881659    3.6943636   -2.3117623 
C     8.5890812    2.8934420   -2.7378573 
H     5.9812067    4.9541321   -2.5467162 
H     7.7635290    6.4519970   -1.7665263 
H    10.0712556    5.6420269   -1.6149606 
H    10.6026760    3.3170660   -2.2391046 
N     8.6899943    1.5311637   -3.1248417 
C     7.3257158    1.2355792   -3.4477727 
H     9.5334455    0.9146697   -3.1686548 
H     6.9699431    0.2612893   -3.7752198 
