48
Energy =
C    -1.0718391    5.4394064   -0.4679032 
C    -0.6843448    5.2058598   -1.7473852 
C    -0.2169423    5.1954394    0.5611577 
C     1.0214481    4.7189506    0.3018094 
C     1.4149807    4.4856286   -0.9751817 
C     0.5623386    4.7240418   -2.0103461 
H    -1.3802988    5.4067205   -2.5574176 
H     1.6935363    4.5240149    1.1300091 
H     2.4132367    4.0967195   -1.1598395 
H    -2.0671821    5.8220396   -0.2697588 
C     0.9971067    4.4620203   -3.4384120 
C     0.6741109    3.0308675   -3.9495978 
H     2.0878045    4.6662617   -3.5384204 
H     0.5167234    5.2043746   -4.1122250 
C     1.3882107    1.9293376   -3.1740241 
O    -0.5849260    5.4278821    1.8907087 
H    -1.5311212    5.7751064    2.0012273 
O     1.0534098    1.6502776   -1.8536821 
N    -0.7805657    2.7990787   -4.0018504 
H     1.0741791    2.9578771   -4.9886051 
H    -1.1646736    2.7369227   -3.0264831 
H    -1.2618903    3.5942347   -4.4834116 
N     2.4773910    1.2167022   -3.7723010 
C     3.8269311    1.5552520   -3.2864848 
H     2.2748025    0.5008221   -4.5058472 
C     4.2002046    2.9848929   -3.6532916 
O     4.5877723    3.8661214   -2.6538326 
O     4.0947522    3.4620377   -4.9603029 
H     3.8250227    2.7307785   -5.6026817 
C     4.8367088    0.5325315   -3.8452047 
H     3.8417883    1.5009545   -2.1708799 
C     6.2143732    0.7360812   -3.2543890 
H     4.8897169    0.6136865   -4.9536111 
H     4.4854537   -0.4988054   -3.6226606 
C     6.6789557    0.2304745   -2.1011464 
C     6.0754540   -0.5924277   -1.2051102 
C     6.7698329   -0.9542235   -0.0882194 
C     8.0400012   -0.4901482    0.1162648 
C     8.6230548    0.3403638   -0.7944047 
C     7.9172745    0.6810185   -1.8930789 
H     5.0633805   -0.9542094   -1.3601383 
H     6.3088812   -1.6109767    0.6457142 
H     8.5851229   -0.7795375    1.0111802 
H     9.6260003    0.7247575   -0.6433093 
N     8.3273421    1.5451384   -2.9436011 
C     7.1599822    1.5358920   -3.7780622 
H     9.2370523    2.0442728   -3.0744889 
H     7.0350986    2.1375756   -4.6783577 
