48
Energy =
C     0.9560949   -1.5984628   -4.2731014 
C     0.8617386   -0.9313844   -3.0952935 
C    -0.0597491   -1.5391701   -5.1750861 
C    -1.1632362   -0.8113386   -4.8916077 
C    -1.2621938   -0.1412667   -3.7162431 
C    -0.2481670   -0.1962221   -2.8091655 
H     1.6809484   -0.9888564   -2.3847348 
H    -1.9655300   -0.7706103   -5.6192780 
H    -2.1559515    0.4408193   -3.5098626 
H     1.8458396   -2.1786817   -4.4916593 
C    -0.3440923    0.5641157   -1.5017702 
C     0.2525074    1.9937998   -1.5804131 
H     0.1710806   -0.0112267   -0.7016318 
H    -1.4067274    0.6212767   -1.1769913 
C     1.7140417    1.9992642   -2.0234501 
O     0.0040624   -2.2166192   -6.3972611 
H     0.8676746   -2.7289026   -6.5379230 
O     2.0680057    2.5749956   -3.2399734 
N    -0.5880810    2.8619673   -2.4227992 
H     0.2602562    2.4249368   -0.5534845 
H    -0.5352725    2.5520163   -3.4225758 
H    -1.5889510    2.8033617   -2.1235584 
N     2.7206558    1.4179108   -1.1662785 
C     4.1625188    1.5604946   -1.4652041 
H     2.4113212    0.8731623   -0.3301509 
C     4.6698349    3.0034848   -1.3308602 
O     5.1038143    3.4351298   -0.0823141 
O     4.7455696    3.9017756   -2.3977425 
H     4.2564713    3.5684952   -3.2118608 
C     4.5299633    0.8299302   -2.7809530 
H     4.7106880    1.0274869   -0.6541847 
C     6.0274767    0.6718631   -2.9264498 
H     4.1279421    1.3534255   -3.6724383 
H     4.0498706   -0.1717898   -2.7922268 
C     6.7854060   -0.3116618   -2.4157515 
C     6.4251358   -1.4005076   -1.6884166 
C     7.4038116   -2.2559871   -1.2749201 
C     8.7125954   -2.0114434   -1.5876246 
C     9.0508510   -0.9090126   -2.3150945 
C     8.0643749   -0.0795111   -2.7150997 
H     5.3875730   -1.5938031   -1.4342453 
H     7.1425175   -3.1356578   -0.6915234 
H     9.4872511   -2.6965856   -1.2521444 
H    10.0844872   -0.6967982   -2.5666296 
N     8.2016784    1.1221548   -3.4598990 
C     6.8351970    1.5505221   -3.5461770 
H     9.0657357    1.5695435   -3.8439489 
H     6.5062596    2.4760923   -4.0178313 
