48
Energy =
C    -1.6489572   -5.4480265   -0.7930852 
C    -0.9553017   -4.4659749   -1.4228305 
C    -1.6391198   -5.5293139    0.5643697 
C    -0.9326967   -4.6270818    1.2826412 
C    -0.2375824   -3.6428357    0.6583432 
C    -0.2489644   -3.5534915   -0.7000555 
H    -0.9674700   -4.4168744   -2.5088328 
H    -0.9288655   -4.7053735    2.3642546 
H     0.3312472   -2.9329412    1.2533292 
H    -2.2095293   -6.1693425   -1.3777921 
C     0.5376310   -2.4697372   -1.4038819 
C     1.8900544   -2.9922953   -1.9400441 
H     0.7098062   -1.6082482   -0.7208030 
H    -0.0744513   -2.0770490   -2.2469128 
C     2.5383091   -1.9788514   -2.8661967 
O    -2.3433294   -6.5286069    1.2440959 
H    -2.8429483   -7.1670432    0.6350027 
O     2.6834242   -2.2634250   -4.2202025 
N     2.7907576   -3.3438814   -0.8277846 
H     1.7131819   -3.8982504   -2.5681855 
H     2.8264455   -2.5703551   -0.1205752 
H     2.4282416   -4.1959778   -0.3374721 
N     2.9705007   -0.7052359   -2.3745598 
C     4.4014577   -0.5865058   -2.0501125 
H     2.2737067    0.0626257   -2.2485252 
C     4.6516851    0.5011638   -1.0185162 
O     4.7606183    0.1654146    0.3258280 
O     4.7611792    1.8378403   -1.3950945 
H     4.5102874    1.9775553   -2.5066847 
C     5.2186842   -0.3609496   -3.3408870 
H     4.7590415   -1.5311331   -1.5763587 
C     4.6560132    0.7510837   -4.2228193 
H     5.2455430   -1.3278323   -3.8840510 
H     6.2728912   -0.1138655   -3.0839493 
C     4.4836793    0.6839003   -5.5522972 
C     4.7069716   -0.3570596   -6.4032630 
C     4.4635718   -0.1812025   -7.7321508 
C     4.0100394    1.0184421   -8.1953680 
C     3.7973412    2.0471522   -7.3306650 
C     4.0422517    1.8505570   -6.0160700 
H     5.0594808   -1.3221247   -6.0574599 
H     4.6283197   -1.0024956   -8.4258757 
H     3.8173175    1.1524059   -9.2569032 
H     3.4388834    3.0079026   -7.6850882 
N     3.8828536    2.8209365   -4.9948175 
C     4.2317337    2.1411483   -3.7434055 
H     3.5811082    3.8146011   -5.1206409 
H     4.0673327    3.0465805   -3.1225514 
