48
Energy =
C     2.6346005    4.8818514   -8.0970089 
C     3.1324795    4.2060737   -7.0229059 
C     1.2906806    5.0474300   -8.2415225 
C     0.4533132    4.5274333   -7.3169598 
C     0.9423361    3.8532410   -6.2463259 
C     2.2868016    3.7108135   -6.0794640 
H     4.2167736    4.0473788   -6.9358101 
H    -0.6157183    4.6509551   -7.4481563 
H     0.2432658    3.4293053   -5.5335789 
H     3.3081131    5.2834595   -8.8497469 
C     2.8607398    2.9373651   -4.9155217 
C     2.2712128    3.2673682   -3.5168735 
H     3.9490548    3.1157375   -4.8469512 
H     2.7582973    1.8470800   -5.1273804 
C     2.8943557    2.3907873   -2.4320529 
O     0.7500960    5.7377190   -9.3314366 
H     1.4448947    6.0892022   -9.9806660 
O     3.0196368    2.8585016   -1.1273688 
N     2.4713836    4.6921454   -3.2097215 
H     1.1841157    3.0297993   -3.4824185 
H     3.4969691    4.9041333   -3.1419415 
H     2.0599794    5.2976522   -3.9565209 
N     3.3279481    1.0556007   -2.7330147 
C     4.7888382    0.9096738   -2.5158146 
H     2.8227341    0.4430756   -2.0519571 
C     5.5928901    1.9015205   -3.3639635 
O     5.8185473    1.6652932   -4.7161493 
O     5.9193744    3.1670483   -2.8769991 
H     5.6901669    3.2598465   -1.8970837 
C     5.1859712   -0.5527883   -2.8136428 
H     5.0359447    1.1203332   -1.4490353 
C     6.6062629   -0.8501162   -2.3821989 
H     5.0678463   -0.7619380   -3.8999853 
H     4.5006208   -1.2535439   -2.2917763 
C     7.0299484   -1.0890349   -1.1315938 
C     6.3269679   -1.1490115    0.0290499 
C     7.0048773   -1.4058677    1.1845442 
C     8.3592197   -1.5963007    1.1630498 
C     9.0436465   -1.5312404   -0.0145796 
C     8.3503881   -1.2770263   -1.1441289 
H     5.2517536   -0.9984060    0.0463297 
H     6.4655961   -1.4592190    2.1271640 
H     8.8929224   -1.7997546    2.0879146 
H    10.1176686   -1.6776774   -0.0507132 
N     8.8675507   -1.1614474   -2.4610624 
C     7.6731167   -0.8804146   -3.2004342 
H     9.8456932   -1.2566056   -2.8147764 
H     7.6492845   -0.7090947   -4.2717675 
