48
Energy =
C     1.7599607    0.1661714    2.9053231 
C     2.4726952    1.1248373    2.2619877 
C     0.4780566    0.4080923    3.2860623 
C    -0.0786026    1.6120643    3.0284517 
C     0.6293027    2.5743549    2.3857829 
C     1.9049453    2.3301817    1.9727412 
H     3.5048176    0.9184982    1.9851191 
H    -1.0962092    1.7988095    3.3530578 
H     0.1674287    3.5425162    2.2234446 
H     2.2212472   -0.7915337    3.1219993 
C     2.7187032    3.4097633    1.2813635 
C     2.3246550    3.7229473   -0.1957873 
H     3.8004184    3.1532362    1.3228006 
H     2.6433532    4.3423271    1.8819717 
C     2.4544188    2.5750922   -1.1997477 
O    -0.2849060   -0.5576025    3.9498666 
H     0.2056948   -1.4301885    4.1133257 
O     2.1229588    2.8201711   -2.5273623 
N     0.9887439    4.3426312   -0.2669655 
H     3.0625661    4.4687636   -0.5787073 
H     0.2409872    3.6215492   -0.1345011 
H     0.8766468    5.0913742    0.4559585 
N     3.1874140    1.3755426   -0.9107818 
C     4.6327537    1.3238182   -1.2157789 
H     2.7290064    0.6528788   -0.3167562 
C     5.3779215    2.6186562   -0.8818493 
O     6.0846262    2.6958155    0.3098710 
O     5.2986870    3.7641768   -1.6757170 
H     4.7158438    3.6259719   -2.4878384 
C     4.8191724    0.8483883   -2.6709693 
H     5.0917600    0.5527590   -0.5551415 
C     6.2750960    0.5943527   -2.9949685 
H     4.3897946    1.5816625   -3.3868340 
H     4.2338131   -0.0833101   -2.8285298 
C     6.9620086   -0.5380302   -2.7761395 
C     6.5467831   -1.7223044   -2.2570836 
C     7.4587398   -2.7284644   -2.1280170 
C     8.7575761   -2.5369782   -2.5111622 
C     9.1526544   -1.3373687   -3.0247729 
C     8.2312107   -0.3588029   -3.1456893 
H     5.5179493   -1.8740248   -1.9456040 
H     7.1521248   -3.6865140   -1.7152584 
H     9.4793201   -3.3425727   -2.4019421 
H    10.1802388   -1.1660981   -3.3268118 
N     8.4370354    0.9587204   -3.6351284 
C     7.1212374    1.5130319   -3.4935224 
H     9.3101397    1.4000318   -4.0049281 
H     6.8586809    2.5471622   -3.7134375 
