48
 energy: -9.298987651444 gnorm: 0.000827846959 xtb: 6.6.0 (2ccbbd7)
C           -2.04213844788076       -2.88503158587741        0.06897036673490
C           -0.83775934459200       -2.22421810649714        0.09439759282594
C           -3.13422979152804       -2.39448206614827        0.78564523093905
C           -2.96992416080361       -1.21981878568654        1.51965993601362
C           -1.76176484348257       -0.56468085267397        1.53923100733763
C           -0.67595928473491       -1.06238307395963        0.83454064503816
H           -0.00604714043646       -2.59551173058711       -0.47840719358408
H           -3.81379973183229       -0.83928904862606        2.06696582587056
H           -1.64987455019134        0.34644151057071        2.10155733985672
H           -2.15574327499489       -3.78555768317962       -0.50745081850720
C            0.62791041508976       -0.33095539419007        0.81440256258189
C            0.72185741836623        0.70216123191649       -0.31055881672538
H            1.44543338596189       -1.04859469697565        0.69908662362739
H            0.80361754760821        0.15733720370950        1.77882148045430
C            2.09241177185173        1.33858660127092       -0.30103451175981
O           -4.35988306234060       -3.03229226405034        0.78325501642008
H           -4.32104812408653       -3.83718760607055        0.22301610658310
O            2.56998561829171        1.75095217730338        0.73863787146065
N            0.42070273216341        0.11055127927370       -1.61022734784731
H           -0.01278867216834        1.50261303153922       -0.13206580793569
H            1.05733623107071       -0.66126929440425       -1.82546880207504
H           -0.51864512174751       -0.26362267390375       -1.62339802520997
N            2.79313162902069        1.39868513553523       -1.48818791480047
C            4.25016567947598        1.31761001865929       -1.48019000506711
H            2.36096955626606        1.06018505635175       -2.35340083101144
C            4.83279036849258        2.70090318380800       -1.66188635527376
O            5.61354222465993        2.92117541095296       -2.56022687336270
O            4.38469406330831        3.58085232390311       -0.73412569883720
H            3.74207900652204        3.10474638843528       -0.14611422041723
C            4.73718878903497        0.27321873030061       -2.48362038926421
H            4.52428343568884        0.98100779482964       -0.46936330621985
C            3.95606181004401       -0.98910318562811       -2.31480593808215
H            5.80873513738251        0.08809808123953       -2.36071057495107
H            4.60652235831065        0.66464481161955       -3.49655886834770
C            3.88855002373021       -1.77034903418022       -1.12169520551812
C            4.62628821353901       -1.75231023742603        0.07465894308492
C            4.29491166703810       -2.63638505100081        1.06337717942656
C            3.24403565248392       -3.55271552900473        0.89711719362569
C            2.51029883574111       -3.58685755632953       -0.25666130852909
C            2.82422473388745       -2.67981741644376       -1.27665947576961
H            5.43883790103141       -1.05828539190183        0.19556672464157
H            4.85224713033403       -2.63491932857957        1.98542173632811
H            3.01479209426495       -4.24117759498944        1.69353847861217
H            1.70994954949953       -4.29164467752012       -0.39392783503780
N            2.24372019672376       -2.43531547867114       -2.50902231908676
C            2.95295628589478       -1.44043641086236       -3.14002935397729
H            1.52337277122859       -3.02308200808969       -2.93568431626930
H            2.70330164234131       -1.02572638496591       -4.10390203702569
