48
Energy =
C     1.5240640    4.5733711    4.6831282 
C     1.7680904    4.0889507    3.4393909 
C     0.4147212    4.1804355    5.3642592 
C    -0.4432809    3.3033673    4.7952079 
C    -0.2045415    2.8154523    3.5514712 
C     0.9020038    3.2093048    2.8637715 
H     2.6625168    4.4094479    2.9099729 
H    -1.3228396    2.9960388    5.3502539 
H    -0.9032271    2.1075913    3.1126845 
H     2.2196373    5.2743734    5.1315762 
C     1.1790947    2.6504636    1.4860031 
C     1.7693104    1.2216454    1.5487321 
H     1.8676255    3.3230053    0.9249325 
H     0.2284759    2.6358897    0.9065750 
C     1.8817857    0.6056696    0.1638278 
O     0.1339850    4.6599736    6.6478542 
H     0.8235179    5.3133153    7.0032961 
O     1.0827434   -0.4848536   -0.1535771 
N     3.0700300    1.2185850    2.2435687 
H     1.0589215    0.5578693    2.1001636 
H     3.6371936    2.0631393    1.9871133 
H     2.9072002    1.2828997    3.2762820 
N     2.4946952    1.3236259   -0.9128301 
C     3.9652378    1.4133820   -0.9281694 
H     1.8762018    1.7830063   -1.6167672 
C     4.4180969    2.8560898   -0.7759285 
O     5.2046719    3.2055789    0.3136233 
O     4.0579692    3.8498039   -1.6852940 
H     3.4965359    3.4862055   -2.4393320 
C     4.5008547    0.7747605   -2.2255546 
H     4.4087289    0.8722258   -0.0574469 
C     4.3600819   -0.7306566   -2.1843343 
H     5.5712851    1.0403937   -2.3758033 
H     3.9514087    1.1737285   -3.1065790 
C     5.2102193   -1.6014728   -1.6176609 
C     6.3898190   -1.3789009   -0.9827625 
C     7.0643422   -2.4502915   -0.4748284 
C     6.5536776   -3.7125873   -0.6038322 
C     5.3643936   -3.9108197   -1.2405402 
C     4.7182811   -2.8354976   -1.7377889 
H     6.7928356   -0.3766840   -0.8702550 
H     8.0102681   -2.2990648    0.0399899 
H     7.0946005   -4.5611795   -0.1919116 
H     4.9398507   -4.9039091   -1.3436969 
N     3.4673364   -2.8204480   -2.4096196 
C     3.3034253   -1.4167646   -2.6536128 
H     2.8410380   -3.6160587   -2.6719315 
H     2.4201367   -0.9702678   -3.1049573 
