48
 energy: -9.287491124655 gnorm: 0.000958029957 xtb: 6.6.0 (2ccbbd7)
C           -0.77863294213596        5.10495687811806        1.73707330007077
C           -1.08989719635495        3.98590765401322        1.00131709800989
C            0.32634638701434        5.88963663187001        1.40557983788555
C            1.10378233779084        5.50497285197097        0.31398526097081
C            0.78464983158796        4.38604761151008       -0.41610164063072
C           -0.31928973845430        3.61057775287279       -0.08962885247997
H           -1.94479418055584        3.38882081484577        1.26855190246134
H            1.96318719912415        6.10070226789041        0.06060490797941
H            1.41446112187393        4.10196177873888       -1.24245891799340
H           -1.38612409024436        5.38692952479786        2.57842325091186
C           -0.65554683298193        2.37754318438660       -0.87227766215105
C            0.13248222252584        1.13566537896087       -0.42673617370648
H           -0.46473127652922        2.57172790014225       -1.93300951699703
H           -1.72918201632643        2.18032968438400       -0.79328314913873
C            1.61071998004756        1.37857110973008       -0.60216332800164
O            0.66384669112346        7.02146014347959        2.12220672481660
H            0.03349932314690        7.15167331978367        2.86333522624205
O            2.26842065501095        1.73306438337771        0.35388256955979
N           -0.12391981840621        0.77523312570136        0.95957240484729
H           -0.15121040630011        0.27231472994676       -1.04940989850576
H            0.47070835185308        1.35469084662737        1.54655530812496
H           -1.09074465216148        0.94186234090616        1.21208405200292
N            2.13901302336374        1.26494162167682       -1.87090613750355
C            3.34442100393207        2.01072399883456       -2.19676810042306
H            1.50863910426610        1.15628487113133       -2.66612604158261
C            2.94860919989180        3.17647317848892       -3.08794507161999
O            3.01320470660463        4.28523557449078       -2.60086980824443
O            2.49477410042717        2.91258513621653       -4.33978511024404
H            2.57684201693401        1.96128470345406       -4.56808670412711
C            4.46207428485259        1.11721204807886       -2.74902288521480
H            3.68435070182466        2.44872042951264       -1.24336180505928
C            4.10480387682386        0.48109916977283       -4.04540404668588
H            4.68842587875089        0.33254807184752       -2.01992831286034
H            5.37870077183592        1.70235893716066       -2.87029578363995
C            4.57894049197218        0.86919951185972       -5.33763229116084
C            5.58910318525050        1.74901801850158       -5.76339114422700
C            5.76449120483795        1.94658571399977       -7.10514941192303
C            4.95306125295442        1.29458558442185       -8.04799702718331
C            3.95584742703062        0.44388269183128       -7.65702050265844
C            3.76071714619332        0.22758860624094       -6.28729427316894
H            6.19883002752727        2.25974888926455       -5.03947957071835
H            6.53340300747440        2.61954589662224       -7.44676294085861
H            5.11571645883449        1.47604312875837       -9.09765295194154
H            3.31976850541278       -0.04859085960620       -8.37055824664908
N            2.82037072165384       -0.51034224208664       -5.58989691991926
C            3.05602846520080       -0.38387564895340       -4.24447946186714
H            2.10477033395539       -1.09547239953834       -6.02540063503584
H            2.45374219385699       -0.82917616377565       -3.46894776448411
