48
Energy =
C     3.9227654   -4.3562770   -4.6172672 
C     4.0179878   -3.0052256   -4.5390696 
C     3.1973214   -4.9335723   -5.6118375 
C     2.5667818   -4.1531489   -6.5186694 
C     2.6566774   -2.8009962   -6.4441575 
C     3.3903776   -2.2179369   -5.4566747 
H     4.5885514   -2.5583146   -3.7299330 
H     1.9848090   -4.6263434   -7.3020239 
H     2.1347677   -2.1916265   -7.1769548 
H     4.4238563   -4.9729003   -3.8792446 
C     3.4739540   -0.7090266   -5.3592526 
C     2.2904367   -0.1022295   -4.5629244 
H     3.4791127   -0.2864258   -6.3881333 
H     4.4461517   -0.4083452   -4.9267027 
C     2.1265019   -0.6961270   -3.1484497 
O     3.0847846   -6.3231550   -5.7263593 
H     3.5575495   -6.8370017   -4.9908086 
O     1.3980776   -1.8789073   -3.0820214 
N     2.3569344    1.3640310   -4.6055284 
H     1.3583006   -0.4230605   -5.0901319 
H     2.5049977    1.6960974   -5.5868635 
H     1.4200154    1.7480103   -4.3330280 
N     2.5429974   -0.1512513   -1.8681202 
C     3.4313810    1.0326675   -1.7397735 
H     1.6635449   -0.0069360   -1.3193692 
C     2.7154943    2.3684205   -1.9782822 
O     1.3248343    2.4143505   -1.9498815 
O     3.4001268    3.5794854   -2.0866279 
H     4.3805674    3.4771969   -1.8951461 
C     4.7673098    0.8230745   -2.5055721 
H     3.6777422    1.0941609   -0.6574438 
C     5.9902567    1.2455460   -1.7173137 
H     4.7418316    1.3686857   -3.4724808 
H     4.9000087   -0.2563313   -2.7265275 
C     6.4756594    0.6524982   -0.6151491 
C     6.0152268   -0.4293055    0.0640979 
C     6.7031391   -0.8425722    1.1668062 
C     7.8306357   -0.1792747    1.5663623 
C     8.2778864    0.9005958    0.8639688 
C     7.5780699    1.2914627   -0.2218711 
H     5.1222703   -0.9597617   -0.2563654 
H     6.3532218   -1.7045684    1.7298686 
H     8.3738224   -0.5155854    2.4459880 
H     9.1728037    1.4348167    1.1643321 
N     7.8770744    2.3717598   -1.0947240 
C     6.8053940    2.2650395   -2.0417143 
H     8.6679777    3.0549930   -1.0546809 
H     6.6811952    2.9117566   -2.9088737 
