48
Energy =
C    -1.8590188    2.5566259   -5.9395525 
C    -1.1244901    2.0167161   -4.9341248 
C    -2.0490228    1.8649949   -7.0948725 
C    -1.5010324    0.6367005   -7.2360995 
C    -0.7654020    0.0918722   -6.2342443 
C    -0.5755345    0.7786034   -5.0741634 
H    -0.9778175    2.5829356   -4.0177064 
H    -1.6576151    0.0965281   -8.1632914 
H    -0.3277691   -0.8934725   -6.3709547 
H    -2.2924857    3.5433997   -5.8180090 
C     0.2569461    0.1854332   -3.9588620 
C     1.6816776    0.7826389   -3.9101871 
H     0.3214507   -0.9218257   -4.0570901 
H    -0.2613943    0.3703670   -2.9912924 
C     2.3930764    0.3574254   -2.6370672 
O    -2.7998658    2.3925943   -8.1505587 
H    -3.1744551    3.3171082   -7.9677774 
O     2.5502507   -0.9916146   -2.3306081 
N     2.4540069    0.3890970   -5.1032290 
H     1.6148970    1.8961926   -3.8672055 
H     2.4448038   -0.6552807   -5.2031324 
H     2.0077393    0.7903996   -5.9619603 
N     2.9664933    1.3419218   -1.7644987 
C     4.4090277    1.6777567   -1.9791693 
H     2.8404761    0.9626044   -0.7964299 
C     4.6273663    3.2003794   -1.9221156 
O     5.8684778    3.7249707   -2.2541754 
O     3.6459900    4.1016258   -1.5045967 
H     2.7883202    3.6510489   -1.2324283 
C     5.0215792    1.0659067   -3.2851973 
H     4.9964754    1.2857864   -1.1158197 
C     6.5368177    1.0185695   -3.2578214 
H     4.6567067    1.6308834   -4.1730822 
H     4.6958663    0.0166667   -3.4441732 
C     7.2907749    0.1110359   -2.6170215 
C     6.9146012   -0.9539994   -1.8625738 
C     7.8888631   -1.7324958   -1.3103666 
C     9.2084529   -1.4383965   -1.5173416 
C     9.5618340   -0.3637497   -2.2785550 
C     8.5796889    0.3904507   -2.8150073 
H     5.8662547   -1.1890310   -1.6954666 
H     7.6142604   -2.5909130   -0.7016926 
H     9.9790140   -2.0630211   -1.0723306 
H    10.6036005   -0.1153414   -2.4509040 
N     8.7298266    1.5440850   -3.6294758 
C     7.3578909    1.8916193   -3.8695708 
H     9.6037209    2.0061352   -3.9708483 
H     7.0298553    2.7743700   -4.4178407 
