48
Energy =
C    -4.0898254    2.1159685   -3.1178131 
C    -2.7548646    2.3199927   -3.2511004 
C    -4.7680906    2.6828106   -2.0843723 
C    -4.1043575    3.4510689   -1.1909232 
C    -2.7692889    3.6585918   -1.3192370 
C    -2.0864829    3.0953986   -2.3536563 
H    -2.2255325    1.8590770   -4.0811788 
H    -4.6567845    3.8968303   -0.3710679 
H    -2.2543875    4.2757842   -0.5878475 
H    -4.6128404    1.4976278   -3.8392708 
C    -0.5951654    3.3067476   -2.4941151 
C     0.2242787    2.0841971   -2.0080005 
H    -0.2692474    4.2199840   -1.9468944 
H    -0.3661504    3.5069310   -3.5656674 
C     1.7110617    2.2216848   -2.3215220 
O    -6.1434095    2.4907662   -1.9164458 
H    -6.5674890    1.9091339   -2.6307782 
O     2.1736964    3.3719981   -2.9492407 
N     0.0205304    1.8634657   -0.5666928 
H    -0.1151070    1.1812867   -2.5656532 
H     0.2203970    2.7451767   -0.0367452 
H    -0.9767937    1.6018049   -0.3839294 
N     2.6068898    1.1429882   -1.9735077 
C     4.0846445    1.1861125   -2.1268311 
H     2.1559644    0.2345065   -1.7186018 
C     4.6970416    2.5020925   -2.6331095 
O     5.3406413    3.3387431   -1.7270470 
O     4.7255364    2.8389026   -3.9900194 
H     4.0312925    2.3173367   -4.5027025 
C     4.5287152   -0.0382390   -2.9630268 
H     4.5153226    1.0654630   -1.1072302 
C     6.0339982   -0.1977369   -2.9726081 
H     4.1490423    0.0489693   -4.0041614 
H     4.0696630   -0.9637418   -2.5520999 
C     6.7838070   -0.8084188   -2.0413661 
C     6.4088540   -1.4480381   -0.9036138 
C     7.3814694   -1.9818654   -0.1100691 
C     8.6987235   -1.8665615   -0.4594424 
C     9.0514957   -1.2155625   -1.6043232 
C     8.0708742   -0.6989364   -2.3742161 
H     5.3642481   -1.5346705   -0.6208897 
H     7.1083117   -2.4984695    0.8068972 
H     9.4683238   -2.2914228    0.1801287 
H    10.0917013   -1.1086599   -1.8925794 
N     8.2223028    0.0263480   -3.5861320 
C     6.8545536    0.3217643   -3.9028587 
H     9.0949580    0.2710245   -4.1081623 
H     6.5321584    0.9241346   -4.7519108 
