48
Energy =
C    -2.4648103    3.6041652   -5.2913158 
C    -1.9081567    3.3708038   -4.0756371 
C    -1.9247109    3.0485029   -6.4092121 
C    -0.8297041    2.2618093   -6.3019819 
C    -0.2692247    2.0248875   -5.0894153 
C    -0.8042090    2.5814211   -3.9681151 
H    -2.3541754    3.8180941   -3.1912684 
H    -0.4072824    1.8227866   -7.1990626 
H     0.6099562    1.3868685   -5.0239522 
H    -3.3437420    4.2349394   -5.3672548 
C    -0.1869923    2.3012577   -2.6166949 
C    -0.5959660    0.9124070   -2.0698661 
H    -0.4568965    3.0934713   -1.8830233 
H     0.9199851    2.3601123   -2.7208669 
C     0.2922238    0.5040538   -0.9076724 
O    -2.4756840    3.2683205   -7.6763229 
H    -3.2904469    3.8716329   -7.6718154 
O     0.4282704    1.3443397    0.1931463 
N    -2.0113296    0.9051555   -1.6684455 
H    -0.4471605    0.1468766   -2.8672373 
H    -2.1932603    1.6705142   -0.9754714 
H    -2.6164536    1.0802731   -2.5048215 
N     1.1693400   -0.6219684   -1.0380368 
C     2.5783326   -0.3253305   -1.3541553 
H     0.7840208   -1.5807121   -0.8854764 
C     2.7539296    0.0567810   -2.8214718 
O     3.5134584    1.1736356   -3.1482938 
O     2.1861260   -0.6928829   -3.8537812 
H     1.6671596   -1.4817264   -3.4958228 
C     3.4631855   -1.5345452   -0.9842308 
H     2.9151175    0.5525058   -0.7538747 
C     3.4641414   -1.7859783    0.5077227 
H     4.5107816   -1.3581525   -1.3168155 
H     3.1097205   -2.4436879   -1.5197965 
C     4.1465018   -1.0991238    1.4377496 
C     5.0010990   -0.0534485    1.2953734 
C     5.5700433    0.4754820    2.4166988 
C     5.2797618   -0.0427453    3.6487149 
C     4.4184949   -1.0931868    3.7667915 
C     3.8690864   -1.5991342    2.6427223 
H     5.2302635    0.3603513    0.3179966 
H     6.2557139    1.3150614    2.3306776 
H     5.7351495    0.3856625    4.5380208 
H     4.1751311   -1.5144165    4.7362004 
N     2.9522257   -2.6799811    2.5456309 
C     2.7373482   -2.7315028    1.1291448 
H     2.5503112   -3.2771789    3.3040942 
H     2.0679093   -3.4317225    0.6357786 
