48
Energy =
C    -1.5890218   -2.8476685    0.3861759 
C    -0.8073093   -2.3858195   -0.6221679 
C    -2.8614194   -2.3896562    0.5289372 
C    -3.3423826   -1.4711705   -0.3395227 
C    -2.5646345   -1.0053912   -1.3495762 
C    -1.2913725   -1.4634998   -1.4985460 
H     0.2085319   -2.7565924   -0.7218458 
H    -4.3584143   -1.1131644   -0.2141240 
H    -2.9693897   -0.2641838   -2.0336389 
H    -1.1936011   -3.5825797    1.0787375 
C    -0.4118229   -0.9380141   -2.6115963 
C     0.6722702    0.0417549   -2.0980250 
H    -1.0175205   -0.4388738   -3.4015413 
H     0.0715678   -1.8036632   -3.1128889 
C     1.6548564    0.4457839   -3.1972142 
O    -3.6929463   -2.8434862    1.5580073 
H    -3.2611504   -3.5329521    2.1633177 
O     1.4683129   -0.0011584   -4.5035076 
N     0.0481222    1.2355237   -1.5042310 
H     1.2849243   -0.4709279   -1.3218329 
H    -0.5998482    1.6787082   -2.1985688 
H    -0.5190232    0.9651649   -0.6669220 
N     2.6875250    1.4141604   -2.9332524 
C     4.0962656    1.0299638   -3.2337208 
H     2.6074340    1.7307268   -1.9387651 
C     4.6900776    1.9922443   -4.2524651 
O     5.9551281    2.5205007   -4.0219051 
O     4.0451566    2.2922491   -5.4518814 
H     3.1238539    1.8738610   -5.4864491 
C     4.3393207   -0.4365293   -3.7033967 
H     4.7033546    1.1984675   -2.3180478 
C     3.9691752   -1.4911237   -2.6814758 
H     5.4201441   -0.5661674   -3.9367164 
H     3.8092828   -0.6179454   -4.6665420 
C     4.5673983   -1.7281701   -1.5021361 
C     5.6369360   -1.1198262   -0.9259209 
C     6.0589042   -1.5663495    0.2916501 
C     5.4216560   -2.6093824    0.9041663 
C     4.3622904   -3.2173700    0.2995642 
C     3.9594703   -2.7542887   -0.9019694 
H     6.1664843   -0.3099387   -1.4180620 
H     6.9130594   -1.0958834    0.7738918 
H     5.7684430   -2.9627962    1.8722917 
H     3.8566159   -4.0569618    0.7646759 
N     2.9108942   -3.2689326   -1.7094149 
C     2.9912469   -2.4003102   -2.8469834 
H     2.2469540   -4.0536045   -1.5151700 
H     2.3567816   -2.4767219   -3.7293659 
