48
Energy =
C     2.7872660    5.1690325   -1.7558502 
C     1.7537060    4.3039626   -1.9125004 
C     3.3717293    5.3217176   -0.5374572 
C     2.9179474    4.6054754    0.5156500 
C     1.8879246    3.7369353    0.3644110 
C     1.2967992    3.5805187   -0.8524305 
H     1.3058439    4.1812910   -2.8963444 
H     3.3931643    4.7324461    1.4809460 
H     1.5447610    3.1662312    1.2228067 
H     3.1477163    5.7331535   -2.6095596 
C     0.1639198    2.5907331   -1.0339891 
C     0.6511659    1.1658367   -1.3799544 
H    -0.5182387    2.9464612   -1.8393972 
H    -0.4514167    2.5553175   -0.1088683 
C     1.3660212    1.1249393   -2.7275590 
O     4.4386852    6.2048514   -0.3408081 
H     4.7328713    6.6856961   -1.1844443 
O     0.5887291    1.0661148   -3.8804222 
N     1.4770481    0.6291625   -0.2821184 
H    -0.2527871    0.5260010   -1.5123550 
H     0.9244314    0.6501628    0.6073599 
H     1.6830840   -0.3807324   -0.4654098 
N     2.7614867    1.4455157   -2.8631939 
C     3.6327740    0.4273803   -3.5160416 
H     3.1392580    1.6742487   -1.9145021 
C     4.4783315    1.0951214   -4.5897477 
O     5.8199059    0.7524578   -4.7006240 
O     3.9228037    1.9538093   -5.5378861 
H     2.9487387    2.1420802   -5.3348785 
C     2.9039496   -0.8031631   -4.1367231 
H     4.3700904    0.0538766   -2.7688325 
C     2.3237275   -1.7453258   -3.0976202 
H     3.6380420   -1.3941218   -4.7307586 
H     2.1497722   -0.4543226   -4.8728074 
C     1.0474728   -2.1648995   -2.9844375 
C    -0.0521315   -1.8570290   -3.7229222 
C    -1.2445921   -2.4278210   -3.3843626 
C    -1.3213822   -3.2931476   -2.3300920 
C    -0.2073880   -3.5938333   -1.6064677 
C     0.9596029   -3.0149954   -1.9574588 
H    -0.0058573   -1.1614740   -4.5563568 
H    -2.1410015   -2.1904336   -3.9540052 
H    -2.2756727   -3.7445434   -2.0671534 
H    -0.2514316   -4.2818596   -0.7681705 
N     2.2231516   -3.2019737   -1.3388406 
C     3.0517502   -2.3549417   -2.1430316 
H     2.4793924   -3.7961886   -0.5155870 
H     4.1254135   -2.2416173   -2.0030390 
