48
Energy =
C    -2.4026346    0.4324865   -4.9667901 
C    -1.9473675    0.7357767   -3.7218386 
C    -1.6018537    0.6153214   -6.0542324 
C    -0.3510474    1.1039862   -5.8882960 
C     0.0957302    1.4049046   -4.6450405 
C    -0.6840391    1.2131924   -3.5550753 
H    -2.6019713    0.5960946   -2.8658379 
H     0.2843333    1.2512152   -6.7547088 
H     1.1678931    1.8162858   -4.3852736 
H    -3.4090374    0.0477487   -5.0912164 
C    -0.1602364    1.6130501   -2.1814590 
C     1.3395946    1.2533818   -1.9434624 
H    -0.7746623    1.1160138   -1.3990580 
H    -0.3019443    2.7092784   -2.0565388 
C     2.3144644    2.1112511   -2.7737325 
O    -2.0396790    0.3094134   -7.3466772 
H    -2.9896680   -0.0422120   -7.3872346 
O     2.1745791    2.2032884   -4.1588782 
N     1.6394066    1.3380051   -0.5033615 
H     1.5126825    0.2056380   -2.2840212 
H     1.3615885    2.2791478   -0.1347563 
H     1.0793286    0.6228730    0.0189384 
N     3.4974209    2.6550930   -2.1789495 
C     4.8366780    2.1117523   -2.4992197 
H     3.3791760    3.4274745   -1.4871709 
C     5.6732417    3.1380942   -3.2555344 
O     6.8956755    3.5353231   -2.7279794 
O     5.2799085    3.6509086   -4.4912557 
H     4.3307600    3.3797403   -4.7158347 
C     4.7760961    0.7541444   -3.2459934 
H     5.3669291    1.9445648   -1.5342634 
C     6.1486165    0.1342829   -3.3850493 
H     4.3299309    0.8971132   -4.2573222 
H     4.1085790    0.0535073   -2.7023871 
C     6.7752563   -0.6428949   -2.4877441 
C     6.3534657   -1.0885420   -1.2761707 
C     7.1994763   -1.8675636   -0.5425421 
C     8.4408315   -2.1819361   -1.0229966 
C     8.8446300   -1.7175251   -2.2396673 
C     7.9884993   -0.9517029   -2.9479818 
H     5.3727817   -0.8320332   -0.8871892 
H     6.8874951   -2.2362768    0.4316957 
H     9.1111599   -2.7995370   -0.4303981 
H     9.8289399   -1.9498314   -2.6318527 
N     8.2173700   -0.3548431   -4.2164816 
C     6.9799735    0.3409600   -4.4219603 
H     9.0577365   -0.4157563   -4.8361596 
H     6.7680172    0.9896378   -5.2731470 
