48
 energy: -9.066745138237 gnorm: 0.000736134779 xtb: 6.6.0 (2ccbbd7)
C            4.90218868214181       -4.38842327268647       -2.37415157506589
C            3.80544797360571       -3.58988223759226       -2.14815081521742
C            5.94895925298330       -4.43775204387209       -1.45203917959632
C            5.84404226354503       -3.67170401914548       -0.29144474559834
C            4.74368722550994       -2.87923764569996       -0.07440734662962
C            3.71517593640193       -2.81242613430177       -1.00144876288634
H            3.00714334301111       -3.55552205665233       -2.86966714547778
H            6.64716503205927       -3.71198394574785        0.42240011621861
H            4.67444166019011       -2.28046491379302        0.81573058727932
H            4.96676796291591       -4.98025867291323       -3.26957321551699
C            2.54317625292490       -1.90579775595596       -0.77721202165096
C            2.93276411844759       -0.55925443724846       -0.14763119984192
H            1.80787025768645       -2.40079317276161       -0.13615806954618
H            2.03155713528259       -1.72709358932286       -1.72861851265496
C            1.87129770191747        0.48033112180473       -0.41361502516876
O            7.07477674035175       -5.21200994580479       -1.66021802382759
H            6.99246971347286       -5.70453557656050       -2.50541829059714
O            0.82121352795969        0.36946989480409        0.18560546260028
N            3.13153250408416       -0.68065245178832        1.28757973549300
H            3.88473814776545       -0.23195857605119       -0.58698039639960
H            3.36617696112981        0.22471425891358        1.67291661207088
H            2.24005952143156       -0.92876855185980        1.69255606983587
N            2.09707384308850        1.51160063705068       -1.30628830560388
C            3.41950954751729        1.85084609636589       -1.85491373292896
H            1.44589445655074        2.29300765428987       -1.28707330853977
C            3.39151013163940        3.20852374259942       -2.49122778106113
O            4.50851034006710        3.98859744304807       -2.42192929244574
O            2.24554465049743        3.58838562140292       -3.15061676146507
H            1.62462336612720        2.82594895166120       -3.22327235947328
C            3.94128519154139        0.79902139039503       -2.86095644733605
H            4.10462612898781        1.90305308898339       -0.99651911268836
C            5.38159439860851        0.44871081091920       -2.66347109577946
H            3.79336056361975        1.16778893651102       -3.88128350009876
H            3.33396906975686       -0.10818947268167       -2.79295673557169
C            6.45581382230334        1.35515739508772       -2.41938993670694
C            6.51540102370431        2.74618861058929       -2.26716542871230
C            7.71844250075829        3.33606822889135       -2.01981451205336
C            8.89177146909023        2.57095345248048       -1.91081031780332
C            8.86212482826433        1.20956030532415       -2.04583648718701
C            7.63264451164617        0.58833098860086       -2.30136812798530
H            5.47290460296059        3.39807114036208       -2.33931093764825
H            7.76675231005373        4.40605436951323       -1.90435422356867
H            9.82834346330587        3.06640163411782       -1.71554432979606
H            9.75338954749427        0.61415719115759       -1.96062221288557
N            7.27972144913152       -0.73893717506488       -2.46560949695797
C            5.92667504516618       -0.81160768494308       -2.68202008067148
H            7.92402221094800       -1.52903129963159       -2.40111095752284
H            5.38123699130582       -1.73123713839422       -2.80814412935521
