48
Energy =
C     0.0836154    4.3542977    0.1435672 
C     0.5489963    3.9886639   -1.0787268 
C    -1.2369561    4.6239718    0.3191142 
C    -2.0843856    4.5224557   -0.7293780 
C    -1.6257481    4.1544301   -1.9525074 
C    -0.3033177    3.8848989   -2.1359504 
H     1.6063149    3.7522321   -1.2004609 
H    -3.1357957    4.7382514   -0.5747139 
H    -2.3262561    4.0771650   -2.7794178 
H     0.7686093    4.4230433    0.9819198 
C     0.2123607    3.4791229   -3.5030546 
C     0.3171924    1.9428471   -3.7173340 
H     1.1965831    3.9656708   -3.6867572 
H    -0.4497505    3.9022555   -4.2896738 
C     1.4086103    1.2810108   -2.8816019 
O    -1.7484380    5.0064922    1.5634422 
H    -1.0536487    5.0407476    2.3014277 
O     1.3086749    1.2226049   -1.4965839 
N    -0.9883266    1.2881294   -3.5199875 
H     0.6282810    1.7781191   -4.7749894 
H    -1.2241799    1.2852771   -2.4959643 
H    -1.7442753    1.8137668   -4.0170250 
N     2.6345631    0.8644242   -3.4939113 
C     3.8414148    1.6226963   -3.1166852 
H     2.6152356    0.1006911   -4.2048539 
C     3.7290548    3.0776906   -3.5374206 
O     3.8003249    4.0719017   -2.5703179 
O     3.4488908    3.4455683   -4.8534636 
H     3.4493430    2.6458129   -5.4703836 
C     5.0986195    0.9556498   -3.7166544 
H     3.9314021    1.6330957   -2.0038896 
C     5.3667985   -0.3911956   -3.0825538 
H     5.9877984    1.6079739   -3.5621268 
H     4.9818783    0.8397512   -4.8167759 
C     5.9117111   -0.6160850   -1.8767502 
C     6.3712736    0.2650225   -0.9512145 
C     6.8822986   -0.2271744    0.2137493 
C     6.9259804   -1.5764562    0.4333984 
C     6.4589286   -2.4419258   -0.5110845 
C     5.9588122   -1.9305768   -1.6555350 
H     6.3358883    1.3367726   -1.1237905 
H     7.2546993    0.4570764    0.9723923 
H     7.3325209   -1.9608565    1.3654440 
H     6.4836981   -3.5145149   -0.3519398 
N     5.4218090   -2.6508097   -2.7560949 
C     5.0578393   -1.5777791   -3.6344901 
H     5.3246869   -3.6833728   -2.8887148 
H     4.5891707   -1.7121612   -4.6058745 
