48
Energy =
C    -3.2550845   -0.8448500   -2.8418761 
C    -2.2343200   -1.4928612   -2.2253966 
C    -3.6670499    0.3695543   -2.3888213 
C    -3.0534668    0.9273255   -1.3203729 
C    -2.0326690    0.2836772   -0.6998880 
C    -1.6182899   -0.9328438   -1.1479001 
H    -1.9138419   -2.4607328   -2.6020452 
H    -3.3897226    1.8964338   -0.9687265 
H    -1.5501256    0.7485169    0.1562956 
H    -3.7401319   -1.2997759   -3.6986223 
C    -0.4684181   -1.6412722   -0.4667209 
C     0.9032644   -1.0299655   -0.8338571 
H    -0.4681410   -2.7285508   -0.7079570 
H    -0.6161301   -1.5781825    0.6350311 
C     2.0020967   -1.6453136    0.0150977 
O    -4.7145864    1.0642898   -3.0028622 
H    -5.1260307    0.5762039   -3.7906050 
O     2.1662613   -3.0276511    0.0362897 
N     1.1975287   -1.2107869   -2.2652957 
H     0.8890989    0.0599917   -0.5997982 
H     1.1699623   -2.2336091   -2.4971322 
H     0.4636380   -0.7357909   -2.8406292 
N     2.6837334   -0.8541792    1.0014677 
C     3.9107426   -0.1378568    0.5482237 
H     2.9326257   -1.5084156    1.7800897 
C     3.8617444    1.2991450    1.0628851 
O     3.7310807    2.3583243    0.1705273 
O     3.9483393    1.5836953    2.4246263 
H     3.9067265    0.7430610    2.9816114 
C     4.1742961   -0.1574189   -0.9922777 
H     4.8050124   -0.5747519    1.0468035 
C     4.5727819   -1.4973565   -1.5937523 
H     5.0054201    0.5467599   -1.2215398 
H     3.2818477    0.2454205   -1.5197641 
C     4.6452962   -1.7582565   -2.9095282 
C     4.3624172   -0.9568222   -3.9698672 
C     4.5170789   -1.4646629   -5.2262763 
C     4.9491859   -2.7498104   -5.4033838 
C     5.2299874   -3.5345973   -4.3247985 
C     5.0681996   -3.0095627   -3.0924279 
H     4.0172382    0.0639493   -3.8341690 
H     4.2948974   -0.8446234   -6.0916723 
H     5.0698917   -3.1478803   -6.4078328 
H     5.5748401   -4.5558532   -4.4468692 
N     5.3103907   -3.6495477   -1.8502884 
C     4.9689134   -2.6036260   -0.9303530 
H     5.6604889   -4.6157325   -1.6566933 
H     4.9822448   -2.7241142    0.1494955 
