48
Energy =
C     2.8831243    1.1179009    4.1236737 
C     2.1373781    0.3403117    3.2983270 
C     4.1578649    1.4482260    3.7839161 
C     4.6759145    1.0006080    2.6177200 
C     3.9336388    0.2245046    1.7893399 
C     2.6607951   -0.1161886    2.1268398 
H     1.1181833    0.0884134    3.5788437 
H     5.6920363    1.2738537    2.3547228 
H     4.3644468   -0.1193977    0.8559876 
H     2.4571843    1.4762719    5.0545569 
C     1.8240366   -0.9659540    1.1946096 
C     0.8285498   -0.1123225    0.3791683 
H     1.2674402   -1.7181542    1.7953460 
H     2.4769205   -1.5442766    0.5050158 
C     1.5356216    0.8880240   -0.5226249 
O     4.9554331    2.2430556    4.6132961 
H     4.4901961    2.5578483    5.4578406 
O     1.4072612    2.2454042   -0.2486659 
N    -0.0684591   -0.9913196   -0.3900868 
H     0.2123958    0.5005415    1.0794904 
H     0.4967103   -1.6439930   -0.9836069 
H    -0.6352365   -1.5772437    0.2666840 
N     2.0841805    0.4692406   -1.7834024 
C     3.3012007    1.2366947   -2.1494377 
H     1.3248145    0.6301140   -2.4869594 
C     2.9781169    2.4769156   -2.9904306 
O     2.6848185    2.3251842   -4.3408323 
O     2.9856116    3.7617486   -2.4523028 
H     2.9859798    3.7429343   -1.4425287 
C     4.2523732    0.3027033   -2.9281996 
H     3.8485254    1.5885833   -1.2421547 
C     4.8229014   -0.7797792   -2.0422600 
H     5.0930800    0.8924232   -3.3604119 
H     3.7184033   -0.1458239   -3.7950647 
C     4.2744109   -1.9741255   -1.7683101 
C     3.1275570   -2.5340335   -2.2305993 
C     2.7795419   -3.7715676   -1.7738357 
C     3.5745042   -4.4226469   -0.8712045 
C     4.7233425   -3.8412046   -0.4225740 
C     5.0470348   -2.6183996   -0.8926159 
H     2.4955252   -2.0147884   -2.9440963 
H     1.8674821   -4.2433410   -2.1312447 
H     3.2924596   -5.4094434   -0.5120788 
H     5.3662454   -4.3432499    0.2927485 
N     6.1831307   -1.8385114   -0.5471453 
C     5.9595597   -0.6614461   -1.3345235 
H     6.9637818   -2.0611941    0.1131959 
H     6.6108395    0.2109261   -1.3358463 
