48
Energy =
C     1.1305512    0.5856242    4.3720402 
C     0.7204632    0.5904406    3.0768792 
C     1.3704438   -0.5911592    5.0080607 
C     1.1978585   -1.7560047    4.3444205 
C     0.7902397   -1.7566704    3.0500941 
C     0.5509115   -0.5810058    2.4039729 
H     0.5322415    1.5392270    2.5800437 
H     1.3915654   -2.6883968    4.8636134 
H     0.6589807   -2.7053530    2.5367723 
H     1.2684187    1.5246402    4.8979355 
C     0.1029049   -0.5868079    0.9516826 
C     1.2504938   -0.4667288   -0.0949423 
H    -0.6379336    0.2272818    0.7852110 
H    -0.4542671   -1.5284620    0.7506293 
C     1.6319946    0.9703420   -0.4279194 
O     1.7930369   -0.6313343    6.3402503 
H     1.9086551    0.2819301    6.7658920 
O     1.4980211    1.9769905    0.5220107 
N     2.4300924   -1.2603523    0.2895368 
H     0.8534684   -0.8772410   -1.0519649 
H     2.8785994   -0.8363272    1.1373684 
H     2.1392762   -2.2352476    0.5321679 
N     1.8243739    1.3697446   -1.7922635 
C     3.1452084    2.0446595   -1.9497811 
H     1.0220531    2.0075762   -1.9446553 
C     3.2073658    3.2553011   -2.9041388 
O     4.4637768    3.7785807   -3.1866224 
O     2.1154581    3.9018823   -3.4876665 
H     1.2299009    3.6929967   -3.0738845 
C     4.1850942    0.9719730   -2.3670024 
H     3.4893446    2.4900331   -0.9823045 
C     3.9334751    0.4165354   -3.7607543 
H     4.1914219    0.1530281   -1.6168863 
H     5.2077678    1.4117664   -2.3377626 
C     3.3349058   -0.7439166   -4.0828379 
C     2.8406673   -1.7237648   -3.2844642 
C     2.2790786   -2.8204589   -3.8686043 
C     2.2243305   -2.9248721   -5.2303518 
C     2.7348844   -1.9344616   -6.0150045 
C     3.2838820   -0.8590526   -5.4119557 
H     2.8973273   -1.6530797   -2.2074241 
H     1.8783766   -3.6172242   -3.2471837 
H     1.7772141   -3.8027945   -5.6894611 
H     2.7059190   -2.0032491   -7.0970278 
N     3.8778019    0.2638971   -6.0440841 
C     4.2748538    1.0399702   -4.9054883 
H     3.9999356    0.4667723   -7.0627689 
H     4.7769996    2.0044796   -4.9675051 
