48
Energy =
C     2.9269052    2.1357894    3.3699277 
C     2.4209711    2.4085513    2.1406299 
C     2.2915370    1.2578807    4.1912394 
C     1.1517390    0.6604630    3.7767450 
C     0.6415299    0.9295138    2.5493533 
C     1.2753664    1.8046461    1.7195873 
H     2.9376624    3.1165318    1.4981509 
H     0.6522328   -0.0367258    4.4395749 
H    -0.2742850    0.4362622    2.2356021 
H     3.8404160    2.6225263    3.6937912 
C     0.7145691    2.0987004    0.3417214 
C     1.2945044    1.1925041   -0.7749891 
H     0.9138303    3.1633325    0.0819810 
H    -0.3921021    1.9978851    0.3554214 
C     2.7856929    1.4089885   -0.9987556 
O     2.7874598    0.9530066    5.4632068 
H     3.6417601    1.4457596    5.6992101 
O     3.2268968    2.5674337   -1.0613086 
N     0.9592093   -0.2235019   -0.5288508 
H     0.8317986    1.5063414   -1.7395789 
H     1.4215251   -0.5481001    0.3525360 
H    -0.0739786   -0.3196208   -0.3910288 
N     3.6218515    0.3297317   -1.4552809 
C     4.5751614    0.6950086   -2.5163859 
H     3.5382120   -0.6251538   -1.0419659 
C     4.6872678    2.2132747   -2.6268305 
O     5.4499555    2.7904557   -3.6380244 
O     4.1270212    2.9361581   -1.7905191 
H     4.1937661    2.6945861   -0.8237908 
C     4.1624421    0.0173270   -3.8431439 
H     5.5872270    0.3360992   -2.2315978 
C     2.7401710    0.3446551   -4.2577428 
H     4.2532735   -1.0840953   -3.7202396 
H     4.8748779    0.2971607   -4.6495469 
C     2.3292531    1.3411221   -5.0612179 
C     3.0476805    2.2762055   -5.7347557 
C     2.3762062    3.1936998   -6.4884664 
C     1.0115677    3.1615150   -6.5621720 
C     0.3099775    2.2109345   -5.8830263 
C     0.9967206    1.3156609   -5.1427740 
H     4.1306451    2.3066158   -5.6830323 
H     2.9303601    3.9572766   -7.0296481 
H     0.4837732    3.8980751   -7.1629958 
H    -0.7730067    2.1711806   -5.9305908 
N     0.4581124    0.2554753   -4.3673461 
C     1.6538156   -0.3214438   -3.8266065 
H    -0.5380390   -0.0299747   -4.2267025 
H     1.6720200   -1.1513773   -3.1230990 
