48
Energy =
C    -1.2513824    5.3940244   -0.4306263 
C    -0.3969388    5.2499922   -1.4743269 
C    -1.9008506    4.3137955    0.0734397 
C    -1.6887972    3.0964500   -0.4699726 
C    -0.8370588    2.9455753   -1.5147869 
C    -0.1793925    4.0243735   -2.0344771 
H     0.1155630    6.1305457   -1.8570195 
H    -2.2082623    2.2395378   -0.0554956 
H    -0.7042775    1.9508104   -1.9050538 
H    -1.4120495    6.3763304    0.0010359 
C     0.8052536    3.9538600   -3.1997123 
C     1.0298601    2.6160802   -3.9695824 
H     1.7900572    4.3231528   -2.8279322 
H     0.4821048    4.7057398   -3.9532686 
C     1.9129567    1.6140159   -3.2267802 
O    -2.7900654    4.4270334    1.1469395 
H    -2.8866860    5.3709371    1.5052930 
O     1.5656870    1.1311922   -1.9710590 
N    -0.2267541    2.0362204   -4.4981756 
H     1.6565732    2.8850697   -4.8573225 
H    -0.5158374    1.1811934   -3.9658273 
H    -1.0197582    2.7205509   -4.4638151 
N     3.1821472    1.2393162   -3.7754207 
C     4.3749841    1.8279258   -3.1379498 
H     3.2119959    0.5570483   -4.5658737 
C     4.3410280    3.3548912   -3.1910683 
O     3.7942505    3.9975171   -4.2951223 
O     4.8154374    4.1401368   -2.1454211 
H     5.2633320    3.5864899   -1.4303745 
C     5.6345710    1.2739422   -3.8315586 
H     4.3865281    1.5262110   -2.0651367 
C     6.8967816    1.6876307   -3.1084751 
H     5.6655663    1.6369263   -4.8847317 
H     5.5837166    0.1644494   -3.8791175 
C     7.4463403    1.0853226   -2.0427755 
C     7.0553466   -0.0313343   -1.3765861 
C     7.7879420   -0.4315824   -0.2979147 
C     8.8843633    0.2844231    0.0967884 
C     9.2539593    1.4063987   -0.5841195 
C     8.5154237    1.7796228   -1.6501344 
H     6.1802444   -0.5964816   -1.6836790 
H     7.4964435   -1.3225985    0.2529680 
H     9.4611619   -0.0393580    0.9594471 
H    10.1159090    1.9902743   -0.2796750 
N     8.7112307    2.9198541   -2.4742378 
C     7.6132041    2.7905039   -3.3882964 
H     9.4552673    3.6532479   -2.4287618 
H     7.3625368    3.5147146   -4.1628903 
