48
Energy =
C    -1.3857963   -1.5365872   -1.9810958 
C    -0.0475454   -1.6907247   -2.1533239 
C    -2.0636189   -2.3512691   -1.1300280 
C    -1.3971200   -3.3143774   -0.4548854 
C    -0.0593746   -3.4718097   -0.6213182 
C     0.6246237   -2.6605047   -1.4745553 
H     0.4801105   -1.0276025   -2.8333198 
H    -1.9497187   -3.9554880    0.2221770 
H     0.4567403   -4.2491960   -0.0655995 
H    -1.9117500   -0.7579467   -2.5229522 
C     2.1197241   -2.8261508   -1.6543399 
C     2.9557476   -1.8562201   -0.7824410 
H     2.3791850   -2.6779284   -2.7263244 
H     2.4170097   -3.8718796   -1.4203717 
C     2.7990055   -0.4097878   -1.2264567 
O    -3.4418740   -2.2201204   -0.9325184 
H    -3.8583183   -1.4614327   -1.4604192 
O     2.2463405    0.5496739   -0.3827614 
N     2.6610208   -2.0391004    0.6488905 
H     4.0322827   -2.0901075   -0.9429288 
H     1.6993560   -1.6756688    0.8588182 
H     2.6739617   -3.0557749    0.8930890 
N     3.3316354    0.0000282   -2.4946664 
C     4.5021548    0.8920898   -2.3073504 
H     2.5615734    0.5317939   -2.9675890 
C     4.1149227    2.3350096   -1.9868351 
O     3.3457177    3.0832606   -2.8685708 
O     4.5381035    2.9218759   -0.8046059 
H     3.9095209    2.6155834   -0.0728984 
C     5.4292786    0.7904822   -3.5373256 
H     5.1146600    0.5463159   -1.4397209 
C     4.7317139    1.0906046   -4.8490050 
H     5.8359560   -0.2438832   -3.5837968 
H     6.3099129    1.4558617   -3.4049259 
C     4.7037446    2.2587209   -5.5126415 
C     5.2625194    3.4563982   -5.1991325 
C     5.0801780    4.5021959   -6.0560288 
C     4.3522897    4.3375283   -7.2018000 
C     3.7984903    3.1270560   -7.4954569 
C     3.9909883    2.1084990   -6.6312602 
H     5.8197209    3.5968474   -4.2779337 
H     5.5058040    5.4748050   -5.8199315 
H     4.2065845    5.1774197   -7.8767331 
H     3.2125733    2.9809650   -8.3965014 
N     3.4994030    0.7806037   -6.7490039 
C     4.0223262    0.1897905   -5.5510529 
H     2.9197631    0.3551065   -7.5088694 
H     3.8575475   -0.8408270   -5.2427932 
