48
 energy: -9.063954216178 gnorm: 0.000560004063 xtb: 6.6.0 (2ccbbd7)
C            1.70010215208619       -0.83398803596227        4.93562950126491
C            2.44459057551056       -0.07173780519753        4.06623442725585
C            0.61938176551961       -1.58617356164038        4.47496043386075
C            0.31612690906050       -1.53769048937407        3.11521146321871
C            1.06561374122336       -0.77215983846114        2.25497945809881
C            2.14212254711019       -0.02641673506713        2.71154176386221
H            3.27926701038278        0.49854392761715        4.43648205757245
H           -0.52330768363545       -2.10766424761542        2.75861590393343
H            0.79815008086557       -0.72189591862486        1.21445348892043
H            1.94626970455887       -0.85977246805328        5.98205343508804
C            2.98333035448636        0.79074113036972        1.77445197805835
C            2.20473468678356        1.82183135375874        0.93421430857287
H            3.52809905609059        0.11562275137438        1.10678073797967
H            3.74978064959350        1.31067582454981        2.35904537888966
C            1.52917352442954        1.16972548505507       -0.25147090632388
O           -0.14595555801290       -2.36601819176438        5.32090489826834
H            0.19176830782626       -2.29648461515105        6.24000244957554
O            0.39333513994792        0.76422747909342       -0.11309744025793
N            1.19835911487645        2.52757033277789        1.71345816630387
H            2.89975255386890        2.58620615409669        0.55237905510188
H            0.36100345379344        1.95161674707353        1.74264689634333
H            1.51419333523651        2.68800274936680        2.66284141076333
N            2.20202874812064        1.02570026667937       -1.44504414473769
C            3.50018992924002        1.64135714189659       -1.75359542955980
H            1.69893971391502        0.64817227193620       -2.24480562214115
C            3.37514269993941        3.13777572307207       -1.74411542657047
O            4.46145967825181        3.90219534278616       -1.43658169764090
O            2.14944551830317        3.68665876220949       -2.04890880478327
H            1.44614701642111        2.99951512431995       -1.99613576753291
C            4.05324501950477        1.11748864533068       -3.09815714140628
H            4.19019413738459        1.34317216483664       -0.95272685171209
C            5.52891890229239        0.87408104467994       -3.12444657707735
H            3.77974959062163        1.81291567832995       -3.89798562543530
H            3.55086458713752        0.17521092909879       -3.34164372788501
C            6.56123289195138        1.68432741082197       -2.56579168145268
C            6.54721069973740        2.87845487828202       -1.83774056775887
C            7.72624609432326        3.42580616035823       -1.42945409482529
C            8.95150204118096        2.80673491585491       -1.72797224483564
C            8.99712255286401        1.63816407515280       -2.43858008042768
C            7.79158978580845        1.06557485979915       -2.86544848609780
H            5.45965102762849        3.40450707056318       -1.61670893398383
H            7.71522824620867        4.34910054650001       -0.87471285926208
H            9.86839891922815        3.26309972747939       -1.39366790073313
H            9.92941299291325        1.15760688542612       -2.67506745869970
N            7.51205755165977       -0.08013345619008       -3.58769414993199
C            6.15133332769275       -0.18366772756904       -3.74199361783144
H            8.21463198361542       -0.72743350308689       -3.94975922897174
H            5.65223338684090       -0.98091353691272       -4.26869894396998
