48
 energy: -9.073700490679 gnorm: 0.000833726921 xtb: 6.6.0 (2ccbbd7)
C           -4.43983736001543        1.72131622985815       -1.91086309678078
C           -3.17630534552605        1.94355847255484       -2.40518030780024
C           -4.90067429761934        0.42153593316291       -1.69911885961707
C           -4.04798253368471       -0.63942560275788       -2.00236552405344
C           -2.78563487391192       -0.40923468510841       -2.49536319333633
C           -2.33263190459189        0.88416952181192       -2.70773480987673
H           -2.82825113719398        2.95077049503474       -2.55805337066159
H           -4.40260123575190       -1.64109400007040       -1.83797266072238
H           -2.13372931370590       -1.23624109507898       -2.71864894914865
H           -5.08551651218084        2.54962351109040       -1.68051103593342
C           -0.93896421897042        1.13158000441056       -3.19324719516400
C            0.11730645994011        0.97272976348935       -2.09613633067600
H           -0.86389087923841        2.14041846690684       -3.60944932884425
H           -0.70764781951430        0.45691128350024       -4.02435221063145
C            1.50556330992367        1.21770466563587       -2.64541345650073
O           -6.16376330165068        0.16486320393234       -1.20001573822522
H           -6.63878287087367        1.00884545314077       -1.03904699159428
O            1.71270983912967        1.12890928611237       -3.83928042634670
N           -0.13618077207141        1.85805383889718       -0.96632366644256
H            0.08836785956691       -0.06078037808709       -1.71797456811403
H           -0.03549446383470        2.81833905484688       -1.26700943349132
H           -1.08397498862462        1.74296767355475       -0.63279777055101
N            2.47760092569409        1.55858576780876       -1.73431654855324
C            3.84694264238545        1.93764446488516       -2.10951527589337
H            2.20642710969175        1.77673227945841       -0.76859827500370
C            3.87223260496714        3.34797238339497       -2.62397482782590
O            4.85159157963606        4.18995449758058       -2.18261631613889
O            2.91412122876420        3.69440203198273       -3.54375809723325
H            2.40916905016656        2.87159606630542       -3.75732664184387
C            4.45468389421529        0.94958013717559       -3.11680594620713
H            4.45394908203135        1.90309632550946       -1.19232957319951
C            5.94204971525530        0.78382489052485       -3.04728214320343
H            4.15956027732645        1.24121631859189       -4.12975032145937
H            3.98939685770131       -0.02855147536654       -2.95234579488183
C            6.94590934417290        1.71974299314818       -2.63954558500380
C            6.91571800806633        3.04926392886755       -2.19397517722335
C            8.08092671843646        3.67903445562866       -1.87391990589159
C            9.31484988664927        3.01874741096359       -1.98274182228871
C            9.38183565226540        1.72513926922283       -2.42072071964805
C            8.19128459125588        1.06672000633731       -2.75552413922279
H            5.84894276520160        3.65496793416127       -2.15561891338290
H            8.05262585615112        4.70324110547571       -1.54112293758924
H           10.21970142707603        3.54293424960915       -1.72344096873325
H           10.32076564747682        1.20998611770866       -2.51594500423209
N            7.95187683254969       -0.20893066883075       -3.22881527233806
C            6.60082744931488       -0.36674665017453       -3.40605798002402
H            8.67530308802849       -0.90357637860467       -3.42333788706820
H            6.13147961294817       -1.26613287522208       -3.77075907256458
