48
Energy =
C    -4.0993335    0.5425932   -1.9227189 
C    -3.2468318    1.4818892   -1.4405743 
C    -3.7973358   -0.1336599   -3.0633989 
C    -2.6424113    0.1352526   -3.7138826 
C    -1.7861236    1.0730738   -3.2359382 
C    -2.0876021    1.7571598   -2.0986477 
H    -3.4991510    2.0095792   -0.5248114 
H    -2.4125351   -0.4113811   -4.6218185 
H    -0.8626102    1.2739091   -3.7721900 
H    -5.0214685    0.3321547   -1.3920168 
C    -1.1194453    2.7785664   -1.5475508 
C    -0.1788536    2.1590789   -0.4733426 
H    -1.6849267    3.6410455   -1.1305000 
H    -0.5341449    3.2203320   -2.3881749 
C     1.2841576    2.4443749   -0.7898434 
O    -4.6526823   -1.1090852   -3.5861899 
H    -5.4979277   -1.2484995   -3.0433818 
O     1.6852915    3.7726097   -0.8750003 
N    -0.5319223    2.6579722    0.8651682 
H    -0.2872355    1.0492973   -0.4576674 
H    -0.3999664    3.6985219    0.9072101 
H    -1.5380212    2.4518823    1.0677806 
N     2.1367715    1.3712178   -1.2532845 
C     3.5976379    1.5210019   -1.4807559 
H     1.6637067    0.4989089   -1.5763500 
C     4.1633311    2.9500196   -1.4195405 
O     4.1167471    3.7797869   -2.5336197 
O     4.7758289    3.4356978   -0.2601933 
H     4.5947410    2.8489750    0.5405164 
C     4.0146387    0.7586975   -2.7682269 
H     4.1021213    0.9820693   -0.6501410 
C     3.3111279    1.2322713   -4.0299912 
H     3.7896732   -0.3222877   -2.6313430 
H     5.1170018    0.8154840   -2.8954336 
C     3.8092528    2.0270183   -4.9953420 
C     5.0264919    2.6227277   -5.0988875 
C     5.2896029    3.3775196   -6.2040799 
C     4.3476126    3.5182811   -7.1845403 
C     3.1362328    2.9056481   -7.0653985 
C     2.8970248    2.1692448   -5.9599642 
H     5.7749258    2.5229435   -4.3194898 
H     6.2519060    3.8741567   -6.3023611 
H     4.5645529    4.1224487   -8.0618562 
H     2.3794235    3.0035133   -7.8362231 
N     1.7179043    1.4374245   -5.6600308 
C     2.0726444    0.8547843   -4.4004219 
H     0.8362779    1.3487685   -6.2152340 
H     1.4404159    0.1619051   -3.8546130 
