48
Energy =
C    -4.4180187    2.3183645   -1.8436442 
C    -3.1410098    2.6439020   -2.1681238 
C    -4.7400663    1.0320833   -1.5415108 
C    -3.7800767    0.0798591   -1.5650031 
C    -2.5015404    0.3995983   -1.8883659 
C    -2.1750024    1.6847004   -2.1955517 
H    -2.8986485    3.6774645   -2.4018974 
H    -4.0490256   -0.9416712   -1.3199908 
H    -1.7437303   -0.3792413   -1.8986112 
H    -5.1805594    3.0894955   -1.8250360 
C    -0.7472980    2.0427097   -2.5422492 
C     0.1525235    2.1574099   -1.2883029 
H    -0.7060545    2.9932128   -3.1213177 
H    -0.3426755    1.2642867   -3.2265493 
C     1.6162365    2.2684125   -1.6913649 
O    -6.0461874    0.6629324   -1.2033779 
H    -6.7053204    1.4335961   -1.2062191 
O     1.9837043    3.2712924   -2.5825028 
N    -0.2435966    3.3116175   -0.4668037 
H     0.0444260    1.2344412   -0.6747022 
H    -0.2185402    4.1890794   -1.0402512 
H    -1.2207618    3.1835632   -0.1141678 
N     2.5502523    1.2262841   -1.3344720 
C     4.0001455    1.3689003   -1.5971254 
H     2.1928333    0.3613089   -0.8708090 
C     4.5757998    2.7739847   -1.3575026 
O     4.9335640    3.1299332   -0.0617340 
O     4.8360347    3.6842326   -2.3804535 
H     4.2896637    3.4667351   -3.1959154 
C     4.4174101    0.6606187   -2.9188347 
H     4.5159470    0.7887202   -0.7983640 
C     3.5208430    0.9268759   -4.1140139 
H     4.4028540   -0.4383923   -2.7432234 
H     5.4755926    0.9018013   -3.1544882 
C     3.8127911    1.6380896   -5.2179146 
C     4.9422274    2.3182408   -5.5499126 
C     4.9851708    2.9593119   -6.7529622 
C     3.9162483    2.9051893   -7.6032558 
C     2.7979717    2.2080926   -7.2561086 
C     2.7764830    1.5870470   -6.0581414 
H     5.7957685    2.3662266   -4.8807600 
H     5.8745808    3.5166738   -7.0368928 
H     3.9588560    3.4175247   -8.5609072 
H     1.9442048    2.1482762   -7.9221098 
N     1.7270305    0.7933564   -5.5258208 
C     2.2953376    0.3949421   -4.2731988 
H     0.7952799    0.5650343   -5.9399941 
H     1.8090177   -0.2688196   -3.5638496 
