48
Energy =
C     2.1800800    0.5001287    4.5711590 
C     1.6582537    0.0730271    3.3918297 
C     3.0995494   -0.2573549    5.2252427 
C     3.4923846   -1.4368513    4.6944930 
C     2.9768667   -1.8664859    3.5150312 
C     2.0546721   -1.1128263    2.8532510 
H     0.9304963    0.6936576    2.8728949 
H     4.2275349   -2.0312429    5.2261727 
H     3.3106797   -2.8160423    3.1055327 
H     1.8648764    1.4511025    4.9879229 
C     1.4863218   -1.5930212    1.5292725 
C     2.2054258   -1.0356456    0.2671684 
H     0.4006948   -1.3514092    1.4807394 
H     1.5360027   -2.7043470    1.4954744 
C     1.6932512    0.3287035   -0.1686252 
O     3.6552579    0.1518324    6.4411931 
H     3.3238901    1.0539584    6.7655334 
O     1.6303062    1.3779118    0.7363870 
N     3.6701703   -1.0345626    0.4244719 
H     1.9474749   -1.7125734   -0.5785557 
H     3.9484146   -0.3307146    1.1513248 
H     3.9992915   -1.9760815    0.7407315 
N     1.5382469    0.6296526   -1.5584236 
C     2.7416835    1.0742187   -2.2860896 
H     0.6138715    0.4738385   -2.0172396 
C     2.6504534    2.5598757   -2.6245095 
O     2.4679553    2.9677208   -3.9422009 
O     2.7598352    3.5367502   -1.6371332 
H     2.7394805    3.1304495   -0.7105172 
C     2.9266869    0.2046146   -3.5521165 
H     3.6529281    0.9756240   -1.6498011 
C     3.0864833   -1.2611466   -3.2195024 
H     3.8192930    0.5477982   -4.1213133 
H     2.0538220    0.3414674   -4.2310370 
C     4.1837777   -1.8612116   -2.7339051 
C     5.4078972   -1.3444693   -2.4555717 
C     6.3614258   -2.1762886   -1.9462989 
C     6.0803431   -3.4966193   -1.7260457 
C     4.8435622   -3.9931085   -2.0141333 
C     3.9177752   -3.1503346   -2.5177462 
H     5.6306977   -0.2957562   -2.6272091 
H     7.3493923   -1.7864237   -1.7134123 
H     6.8462079   -4.1530040   -1.3207665 
H     4.6038700   -5.0374040   -1.8460516 
N     2.5771077   -3.4593785   -2.8720098 
C     2.1095651   -2.1806908   -3.3156835 
H     2.0611498   -4.3661788   -2.8102570 
H     1.0965378   -1.9875432   -3.6550565 
