48
Energy =
C     0.6179529   -4.2367579   -5.2853501 
C     0.7987862   -2.9143128   -5.0432500 
C     1.4990072   -5.1488319   -4.7993255 
C     2.5592333   -4.7304115   -4.0744557 
C     2.7461677   -3.4100144   -3.8275647 
C     1.8603782   -2.4826747   -4.2998844 
H     0.0778822   -2.2221146   -5.4517570 
H     3.2607768   -5.4660457   -3.6966056 
H     3.6160423   -3.1060054   -3.2513665 
H    -0.2339508   -4.5610066   -5.8730208 
C     2.1138848   -0.9995298   -4.0298238 
C     0.8596810   -0.1883204   -3.5787707 
H     2.5826040   -0.5138354   -4.9196745 
H     2.8778262   -0.9492752   -3.2170401 
C     1.2052891    0.7401277   -2.4247615 
O     1.3398290   -6.5194992   -5.0321495 
H     0.5217677   -6.7506778   -5.5852210 
O     1.4500945    0.1875370   -1.1715724 
N     0.2417060    0.5526831   -4.7020069 
H     0.1053375   -0.8891152   -3.1560619 
H     0.8743132    1.3202607   -5.0200683 
H     0.1554985   -0.0708643   -5.5352405 
N     1.4680120    2.1459437   -2.6261971 
C     2.8936779    2.4710275   -2.3450138 
H     0.8423802    2.5685224   -1.9088207 
C     3.1796486    3.9717799   -2.1027927 
O     4.4821322    4.4229865   -2.2775646 
O     2.2477930    4.8976577   -1.6303051 
H     1.3470694    4.5172949   -1.4151823 
C     3.7524582    1.9512994   -3.5462382 
H     3.1585508    2.0279538   -1.3871217 
C     4.9987057    1.0682036   -3.3715918 
H     4.0680630    2.8235717   -4.1628386 
H     3.0863636    1.4223510   -4.2643870 
C     5.6123790    0.4525524   -2.3130491 
C     5.3552943    0.4295985   -0.9694635 
C     6.1588301   -0.3052690   -0.1488638 
C     7.2072265   -1.0098196   -0.6550741 
C     7.4625575   -0.9845536   -1.9870106 
C     6.6583050   -0.2514454   -2.7839771 
H     4.5605665    0.9584467   -0.4921464 
H     5.9617382   -0.3280788    0.9212191 
H     7.8419893   -1.5925212    0.0086644 
H     8.2940439   -1.5406940   -2.4076849 
N     6.7832100   -0.1311212   -4.1863163 
C     5.6842660    0.7251079   -4.4837228 
H     7.4911037   -0.5574238   -4.8292928 
H     5.4264331    1.0360822   -5.4960858 
