48
Energy =
C     3.2989301   -1.8010937   -6.4286483 
C     2.4555618   -2.0205979   -5.3904762 
C     4.0762396   -0.6866522   -6.4547938 
C     4.0291361    0.1839465   -5.4234817 
C     3.2262687   -0.0529181   -4.3444527 
C     2.3978820   -1.1362331   -4.3573127 
H     1.8173133   -2.8990950   -5.4052994 
H     4.6445906    1.0705610   -5.4708313 
H     3.0577424    1.9423365   -1.9019270 
H     3.3309979   -2.5074713   -7.2495258 
C     1.3842667   -1.3091051   -3.2546745 
C     2.0408310   -1.7275124   -1.9099693 
H     0.6127343   -2.0382892   -3.5645003 
H     0.8225464   -0.3551499   -3.1376622 
C     2.1674745   -0.5594219   -0.9444045 
O     4.9224033   -0.4089395   -7.5355272 
H     4.9303017   -1.1359618   -8.2392596 
O     1.0379905    0.1788900   -0.5928412 
N     1.2609988   -2.8414674   -1.3237467 
H     3.1338180   -2.0004275   -2.0188463 
H     0.3511296   -2.4753611   -0.9430287 
H     1.0992810   -3.6180573   -2.0048591 
N     3.3589574   -0.4047180   -0.1562574 
C     4.4488763    0.3981335   -0.7946990 
H     3.7246087   -1.3467496    0.1192113 
C     4.6189158    1.7267829   -0.0862875 
O     5.8720701    2.2774449    0.0954973 
O     3.5122441    2.4776111    0.2499637 
H     2.8370854    1.7608901    0.5477355 
C     4.3556789    0.5352981   -2.3799655 
H     5.4150961   -0.1140449   -0.5849399 
C     5.5326388    1.3722874   -2.8934060 
H     2.9401141    1.1307832   -3.1035279 
H     4.6193178   -0.5305074   -2.6047355 
C     6.6474978    0.9317636   -3.5107825 
C     7.0395854   -0.3318801   -3.8292182 
C     8.2256989   -0.5024653   -4.4791361 
C     8.9996712    0.5761194   -4.8003083 
C     8.5914404    1.8334939   -4.4740916 
C     7.4132749    1.9786510   -3.8316093 
H     6.4375266   -1.1999832   -3.5857550 
H     8.5536711   -1.5032018   -4.7430486 
H     9.9427444    0.4303336   -5.3180187 
H     9.1937350    2.7000908   -4.7224213 
N     6.8154852    3.1971464   -3.4192944 
C     5.6067201    2.7154728   -2.8146401 
H     7.1431297    4.1809899   -3.5438250 
H     4.9014281    3.3444208   -2.2699028 
