48
Energy =
C    -2.1858615    1.5236767    1.3571359 
C    -0.9096809    1.7336764    1.7674306 
C    -2.5641271    1.8684806    0.0975105 
C    -1.6619772    2.4238996   -0.7428689 
C    -0.3838257    2.6341566   -0.3389590 
C     0.0027156    2.2854546    0.9198390 
H    -0.6228534    1.4536449    2.7771907 
H    -1.9774939    2.6989701   -1.7435795 
H     0.3245231    3.0837802   -1.0312736 
H    -2.9024230    1.0784987    2.0388955 
C     1.4316485    2.5103331    1.3712470 
C     2.1915187    1.1878995    1.6391757 
H     1.4196791    3.1209159    2.3005437 
H     1.9871024    3.1127273    0.6162037 
C     2.1479379    0.2153797    0.4656072 
O    -3.8707719    1.6650413   -0.3575326 
H    -4.4855949    1.2404090    0.3283987 
O     1.5544440   -1.0278829    0.6455197 
N     3.5767881    1.4845083    2.0460876 
H     1.6890046    0.6458986    2.4755549 
H     4.0026017    2.2230439    1.4333190 
H     3.5735902    1.8827120    3.0147889 
N     2.3771331    0.6602042   -0.8757666 
C     3.7624039    0.9520949   -1.2804557 
H     1.5524723    0.7750057   -1.5036377 
C     3.9272813    2.4331602   -1.5712811 
O     4.8140064    3.1756027   -0.8036625 
O     3.1902261    3.0841285   -2.5600259 
H     2.5955102    2.4471997   -3.0665216 
C     4.1397825    0.0783363   -2.4956926 
H     4.4796308    0.7343519   -0.4517753 
C     4.3465870   -1.3635411   -2.0853081 
H     5.0844177    0.4553015   -2.9513259 
H     3.3626194    0.1448239   -3.2868031 
C     3.4243188   -2.3397389   -2.0453128 
C     2.1103377   -2.3153070   -2.3864255 
C     1.3809349   -3.4588793   -2.2425523 
C     1.9692136   -4.5981241   -1.7674605 
C     3.2904372   -4.6001950   -1.4321154 
C     3.9904135   -3.4561811   -1.5827176 
H     1.6385948   -1.4116839   -2.7551536 
H     0.3242514   -3.4616313   -2.4981155 
H     1.3796277   -5.5037057   -1.6495278 
H     3.7711779   -5.4934130   -1.0481369 
N     5.3639462   -3.2461429   -1.2861243 
C     5.5107166   -1.8634469   -1.6332606 
H     6.0734423   -3.9216658   -0.9196902 
H     6.4340527   -1.2984596   -1.5254900 
