48
Energy =
C     1.7360614    6.3532783   -0.4245517 
C     1.4057802    5.2957131   -1.2063206 
C     0.8037591    6.9193621    0.3875801 
C    -0.4530040    6.4210805    0.4083805 
C    -0.7868196    5.3624162   -0.3714169 
C     0.1439872    4.7886996   -1.1818071 
H     2.1585046    4.8549434   -1.8580878 
H    -1.1868200    6.8798642    1.0575997 
H    -1.7998323    4.9736416   -0.3438430 
H     2.7491443    6.7378957   -0.4572749 
C    -0.2174785    3.6008447   -2.0474395 
C    -0.0423458    2.2305802   -1.3474518 
H     0.4145716    3.6009453   -2.9735457 
H    -1.2552922    3.6971236   -2.4258591 
C     1.3985193    1.9518973   -0.9194626 
O     1.1080326    8.0141501    1.2071445 
H     2.0769797    8.3045569    1.1333012 
O     1.8604083    2.4115648    0.3174927 
N    -0.9994414    2.0678213   -0.2358085 
H    -0.2708498    1.4595028   -2.1234498 
H    -0.7517941    2.7387974    0.5271139 
H    -1.9592053    2.2977119   -0.5788394 
N     2.1186476    0.9008512   -1.5756469 
C     3.4165427    1.1992493   -2.2116631 
H     1.8198754   -0.0775493   -1.3942397 
C     3.5462125    2.6321228   -2.6990227 
O     4.5093010    3.4666839   -2.1408968 
O     2.6919166    3.1402179   -3.6526661 
H     2.0616073    2.2057414   -4.0120885 
C     3.6269563    0.1707420   -3.3520002 
H     4.2253305    1.1125930   -1.4567444 
C     2.5842957    0.2287936   -4.4585827 
H     3.6015704   -0.8511242   -2.9251661 
H     4.6257295    0.3451544   -3.8089930 
C     2.5496914   -0.6144045   -5.4947600 
C     3.4633879   -1.5457549   -5.8760701 
C     3.1888910   -2.3261053   -6.9618290 
C     2.0087992   -2.1718071   -7.6334748 
C     1.1044184   -1.2400983   -7.2157013 
C     1.4113538   -0.4775064   -6.1391477 
H     4.3946448   -1.6558764   -5.3332552 
H     3.9110285   -3.0670217   -7.2885911 
H     1.7879355   -2.7911034   -8.4967336 
H     0.1575636   -1.1051508   -7.7234369 
N     0.5795297    0.4935170   -5.5344835 
C     1.3385939    1.1299292   -4.4349010 
H    -0.4079728    0.7082342   -5.7795358 
H     0.8085785    2.0198274   -4.8700967 
