48
Energy =
C     7.1458564   -0.2180047    0.9337743 
C     6.0455415    0.1948246    1.6123358 
C     7.1350129   -1.4060618    0.2721737 
C     6.0235106   -2.1754877    0.2977026 
C     4.9201998   -1.7673697    0.9730524 
C     4.9255629   -0.5791563    1.6383096 
H     6.0636989    1.1545331    2.1228857 
H     6.0265153   -3.1192094   -0.2366572 
H     4.0294537   -2.3914308    0.9651042 
H     8.0311248    0.4088868    0.9151189 
C     3.6747561   -0.0867211    2.3337763 
C     2.8610688    0.8627552    1.4261835 
H     3.9596130    0.4424164    3.2696752 
H     3.0386322   -0.9473269    2.6427111 
C     2.4140772    0.1705467    0.1451716 
O     8.2469929   -1.8562115   -0.4455557 
H     9.0377629   -1.2210261   -0.4197674 
O     1.7067372   -1.0259473    0.2107127 
N     1.7061598    1.3955203    2.1648186 
H     3.5118502    1.7171538    1.1283103 
H     1.0844212    0.6077658    2.4713321 
H     2.0299214    1.8973108    3.0252932 
N     2.5442583    0.8239026   -1.1220584 
C     3.9019462    0.9564444   -1.6850124 
H     1.6936058    1.2462226   -1.5594143 
C     4.2063395    2.3796566   -2.1559672 
O     5.1877757    2.5824683   -3.1190170 
O     3.6169351    3.5030116   -1.5753624 
H     2.9707608    3.2639230   -0.8395391 
C     4.0891185   -0.0964457   -2.7982747 
H     4.6713788    0.7503927   -0.9092507 
C     3.1034924    0.0711846   -3.9382994 
H     3.9907969   -1.1115695   -2.3577457 
H     5.1276406   -0.0372197   -3.1963694 
C     1.8972549   -0.5089401   -4.0562821 
C     1.2643925   -1.3827860   -3.2315417 
C     0.0210373   -1.8207883   -3.5802199 
C    -0.5652967   -1.3863239   -4.7365240 
C     0.0885675   -0.5097973   -5.5504609 
C     1.3177098   -0.0907470   -5.1831639 
H     1.7225958   -1.7265497   -2.3096579 
H    -0.5070056   -2.5158356   -2.9313693 
H    -1.5578061   -1.7385760   -5.0062656 
H    -0.3631095   -0.1520610   -6.4695130 
N     2.1553791    0.8208822   -5.8783709 
C     3.2901436    0.8739665   -5.0021659 
H     1.9919970    1.3147109   -6.7860283 
H     4.1700544    1.4946819   -5.1699026 
