48
 energy: -9.294162889964 gnorm: 0.000324633811 xtb: 6.6.0 (2ccbbd7)
C            0.10365046509396       -3.59631689166251        1.58167173814444
C           -0.33741472823368       -2.70092815585521        0.63556366757239
C            1.37812809933312       -4.15765704115587        1.49119235376864
C            2.19084670344081       -3.78075647938066        0.42272983858212
C            1.74172844352460       -2.88490908302368       -0.51654945486879
C            0.47052507330378       -2.33704718021154       -0.43225945550610
H           -1.32169460475567       -2.27297532385195        0.71763250362551
H            3.17721270987089       -4.20373529611444        0.35663015918371
H            2.38372610614103       -2.57687119807647       -1.32365787436461
H           -0.53190780050287       -3.87387306397895        2.40334155826686
C           -0.00522412660666       -1.36003737013618       -1.46527767068472
C            0.62816332804965        0.02757471274136       -1.32899489350859
H           -1.09539879360271       -1.27560463820353       -1.42036702822124
H            0.22563879076261       -1.74992270458464       -2.46121607190808
C            2.10670114428482        0.00679528298964       -1.62262043535203
O            1.84915650868033       -5.06369331521370        2.42230625659240
H            1.16692449012043       -5.22376912329780        3.10966492818012
O            2.53833285994836       -0.77947587701740       -2.44058295406251
N            0.04181908790646        1.00705404256364       -2.23210929939429
H            0.48800382135662        0.38298454980027       -0.29669435592946
H            0.16182895168643        0.67786506296917       -3.18215212286463
H           -0.95384363796261        1.08550488480049       -2.07055467094895
N            2.85707271321150        0.97300139815985       -0.97888892022665
C            4.03551023023635        1.58302273549691       -1.59532689571758
H            2.37989931595940        1.63009898857784       -0.36144945263883
C            3.66732957131641        2.94779881988950       -2.14694243810689
O            4.55411528470477        3.77157457433149       -2.21689463016445
O            2.38871423927389        3.16763782871733       -2.54919590286671
H            1.76036960814730        2.40460915711428       -2.41086437615547
C            4.68498491700669        0.70343233558053       -2.67134173175501
H            4.76949203066430        1.73431739331728       -0.79007070620302
C            6.13563725937961        0.96067681441836       -2.90762219802399
H            4.12798523528427        0.81727044673558       -3.60632492240718
H            4.55478472900684       -0.34412909633390       -2.38531418077495
C            7.12918079249602       -0.02807228932891       -3.17084715035304
C            7.08219682316596       -1.43020706954416       -3.25471156010725
C            8.23868008948319       -2.10905409870081       -3.52195432628790
C            9.45349867448865       -1.42998920656648       -3.71115315414254
C            9.52208102349091       -0.06563721209680       -3.63680156396862
C            8.34908726421227        0.64948415176910       -3.36434283192311
H            6.14936837637494       -1.94602721120616       -3.11197087561000
H            8.21999418867457       -3.18416014014323       -3.58943979507339
H           10.34632971021062       -1.99606783554290       -3.91909480501452
H           10.44775395421811        0.46200454958195       -3.78090652491432
N            8.09865987141849        2.00401870435121       -3.22922124909080
C            6.76533603223547        2.17824890952777       -2.95884720720293
H            8.80012745160253        2.74167720065171       -3.31638126813442
H            6.28369610680962        3.12771980987312       -2.79286401343554
