48
Energy =
C     5.4200626   -1.6397858    2.5369272 
C     4.1723013   -1.1596056    2.7646681 
C     5.7674825   -2.0966114    1.3022354 
C     4.8452870   -2.1146773    0.2912190 
C     3.5591838   -1.7468277    0.5862709 
C     3.2362763   -1.2033321    1.7825096 
H     3.9342072   -0.7347461    3.7361462 
H     5.4209647   -2.4646030   -1.3193703 
H     2.7785743   -1.8294491   -0.1470591 
H     6.1584420   -1.6068425    3.3305746 
C     1.8714940   -0.5640934    1.9596391 
C     1.7457838    0.7587114    1.1476616 
H     1.6867813   -0.3609551    3.0371329 
H     1.0789755   -1.2789227    1.6398886 
C     1.7239584    0.5221570   -0.3685982 
O     7.0790078   -2.5016214    1.0261094 
H     7.6967665   -2.4836386    1.8294001 
O     0.8733904   -0.4518403   -0.8816249 
N     0.5377767    1.4844304    1.5655200 
H     2.6277756    1.3965214    1.3742752 
H    -0.3105291    0.8954645    1.3783361 
H     0.5680704    1.6814844    2.5935283 
N     2.2886256    1.4694379   -1.2923909 
C     3.7762180    1.4987177   -1.2880626 
H     1.8662774    2.3971247   -1.0476667 
C     4.2982461    2.9403200   -1.3424898 
O     4.5702305    3.5404181   -2.5659358 
O     4.4718799    3.6926316   -0.1815162 
H     4.1751533    3.1968155    0.6432747 
C     4.3150935    0.6699640   -2.4947630 
H     4.1946458    1.0777216   -0.3451750 
C     4.6651823   -0.7577849   -2.1090058 
H     5.2578660    1.1250026   -2.8778988 
H     3.6310013    0.7637073   -3.3577854 
C     3.7134603   -2.0399640   -2.3988253 
C     2.6012308   -1.8399784   -3.1619371 
C     1.7196731   -2.8312355   -3.4448954 
C     1.8660803   -4.0959890   -2.9864038 
C     2.8996505   -4.4536458   -2.2010650 
C     3.8249811   -3.5524005   -1.8584914 
H     2.3547468   -0.8687937   -3.5610701 
H     0.8493288   -2.5962953   -4.0551588 
H     1.1185879   -4.8420817   -3.2472596 
H     2.9835473   -5.4703621   -1.8313434 
N     5.0450354   -3.9656448   -0.8670725 
C     5.9621240   -0.8715493   -1.2583661 
H     5.3980115   -4.7902531   -0.3236297 
H     6.6469083   -0.1919932   -0.7521935 
