48
Energy =
C     5.6849533    6.6569711    1.6452673 
C     5.0605732    5.9870039    0.6435943 
C     4.9621441    7.1878598    2.6675426 
C     3.6173759    7.0444972    2.6803267 
C     2.9870017    6.3759593    1.6817616 
C     3.7058854    5.8457814    0.6551251 
H     5.6555660    5.5654284   -0.1651988 
H     3.0524880    7.4715935    3.5019547 
H     1.9052136    6.2693599    1.7134010 
H     6.7641574    6.7663302    1.6277430 
C     3.0069870    5.0842819   -0.4470408 
C     2.6122357    3.6483854   -0.0105081 
H     3.6350486    5.0564485   -1.3694890 
H     2.0959433    5.6437191   -0.7624915 
C     1.7669285    2.9816278   -1.0965197 
O     5.5749108    7.8818987    3.7155981 
H     6.5831435    7.9525692    3.6308731 
O     0.5326597    3.5642192   -1.3769928 
N     3.7995485    2.8646555    0.3818927 
H     1.9207229    3.7139310    0.8631194 
H     4.6232230    3.1020160   -0.2186426 
H     4.0709384    3.1188225    1.3616492 
N     2.0784963    1.7076622   -1.7035525 
C     3.3787553    1.6514335   -2.4310795 
H     1.2945731    1.5486561   -2.3783446 
C     3.8761173    2.9990387   -2.9607501 
O     3.0033971    3.8642866   -3.6006925 
O     5.1852170    3.4303574   -2.7526454 
H     5.7949418    2.6669304   -2.4949032 
C     3.2908835    0.6127682   -3.5723084 
H     4.1361645    1.2804235   -1.7074562 
C     4.6531315    0.2762307   -4.1398900 
H     2.6200951    0.9918946   -4.3756708 
H     2.8258015   -0.3196015   -3.1820791 
C     5.2793998    0.8812564   -5.1630757 
C     4.8711333    1.9067685   -5.9545470 
C     5.7144235    2.3469370   -6.9316599 
C     6.9389613    1.7630188   -7.1027153 
C     7.3293696    0.7369768   -6.2945653 
C     6.4776258    0.3194487   -5.3344364 
H     3.9055680    2.3853258   -5.8136188 
H     5.4125134    3.1729473   -7.5712938 
H     7.6061088    2.1231994   -7.8816788 
H     8.2998596    0.2673647   -6.4128005 
N     6.6953523   -0.7153281   -4.3853916 
C     5.4682312   -0.6727103   -3.6468367 
H     7.5272515   -1.3363787   -4.2598347 
H     5.2393560   -1.3149647   -2.7998731 
