48
Energy =
C     3.1003424    1.7154367    3.8979306 
C     2.1016718    1.5512926    2.9937022 
C     4.2285753    0.9608697    3.8140433 
C     4.3505311    0.0489204    2.8235050 
C     3.3577182   -0.1157426    1.9134733 
C     2.2221772    0.6308671    1.9974194 
H     1.2074107    2.1643316    3.0682165 
H     5.2553209   -0.5455344    2.7695854 
H     3.4796606   -0.8447241    1.1168910 
H     2.9949728    2.4527563    4.6863700 
C     1.1188418    0.4635726    0.9734836 
C     1.1206996    1.6023099   -0.0717052 
H     0.1369446    0.4437564    1.4951069 
H     1.2153382   -0.5168811    0.4552056 
C     2.4527388    1.7193751   -0.7946984 
O     5.2758825    1.1008250    4.7304548 
H     5.1170638    1.8156539    5.4325982 
O     3.2425810    2.8442533   -0.5606066 
N     0.0125785    1.4095583   -1.0212479 
H     0.9770819    2.5775567    0.4501811 
H     0.0473891    0.4456231   -1.4299544 
H    -0.8998290    1.4977631   -0.5149904 
N     2.9626868    0.6048781   -1.5562547 
C     4.3873816    0.7457644   -1.9417121 
H     2.3641475    0.5422334   -2.4134785 
C     4.5668349    1.5383216   -3.2432508 
O     4.3891449    0.8937214   -4.4633281 
O     4.9184472    2.8853273   -3.2531481 
H     4.8871672    3.2860530   -2.3265516 
C     4.9738862   -0.6736726   -2.0671438 
H     4.9669116    1.2642332   -1.1419420 
C     6.4707080   -0.6425663   -2.2873199 
H     4.4745064   -1.2126386   -2.9046896 
H     4.7453135   -1.2535046   -1.1472362 
C     7.4157873   -0.5281144   -1.3422514 
C     7.2893886   -0.4439360    0.0066597 
C     8.4205371   -0.3109818    0.7564367 
C     9.6469002   -0.2614687    0.1528128 
C     9.7487066   -0.3417234   -1.2047680 
C     8.6146269   -0.4758376   -1.9240627 
H     6.3163631   -0.4705331    0.4849021 
H     8.3464702   -0.2363700    1.8391450 
H    10.5437030   -0.1500088    0.7571954 
H    10.7127611   -0.2932246   -1.6996661 
N     8.4961967   -0.5477178   -3.3380836 
C     7.0718945   -0.6416134   -3.4906748 
H     9.2460883   -0.5409697   -4.0673185 
H     6.5475955   -0.6513196   -4.4476618 
