48
Energy =
C    -2.1135978   -0.0338684    2.8284566 
C    -0.8423142    0.2805506    2.4719993 
C    -3.1115403    0.8773396    2.6771310 
C    -2.8294302    2.0991557    2.1711937 
C    -1.5603448    2.4191811    1.8130226 
C    -0.5576757    1.5097862    1.9590129 
H    -0.0569014   -0.4592959    2.6026222 
H    -3.6334647    2.8180644    2.0578991 
H    -1.3538725    3.4079526    1.4115437 
H    -2.3301070   -1.0155710    3.2357336 
C     0.8564182    1.8669257    1.5520744 
C     1.0332762    1.9204754    0.0127749 
H     1.5959834    1.1554068    1.9831520 
H     1.1069628    2.8594888    1.9916753 
C     2.3762656    2.5188987   -0.3793252 
O    -4.4321689    0.5846058    3.0329696 
H    -4.5608387   -0.3482384    3.4093269 
O     3.3148973    2.8685813    0.5887668 
N     0.8809236    0.5811617   -0.5935479 
H     0.2694453    2.6192484   -0.4026387 
H     0.6213134   -0.1513376    0.1065397 
H     0.1018758    0.6050300   -1.2931150 
N     2.6466500    2.8372953   -1.7499432 
C     3.9162348    2.3401169   -2.3070274 
H     1.9526592    3.3882629   -2.3053389 
C     4.3187052    3.1293382   -3.5494655 
O     3.3650670    3.4112292   -4.5208080 
O     5.6434737    3.4941911   -3.7945259 
H     6.2724956    3.1885101   -3.0671804 
C     3.7642089    0.8410159   -2.6331769 
H     4.7255317    2.4875254   -1.5544593 
C     5.0934813    0.2182123   -2.9915982 
H     3.0356637    0.7126885   -3.4661965 
H     3.3314261    0.3012372   -1.7631065 
C     6.0286327   -0.2167777   -2.1337333 
C     6.0179695   -0.2432934   -0.7761802 
C     7.1185811   -0.7243720   -0.1299148 
C     8.2016720   -1.1618359   -0.8416728 
C     8.1914673   -1.1185871   -2.2045902 
C     7.0894709   -0.6420097   -2.8207543 
H     5.1625461    0.1144711   -0.2087947 
H     7.1365277   -0.7549292    0.9570387 
H     9.0767521   -1.5399568   -0.3189678 
H     9.0455394   -1.4524168   -2.7840534 
N     6.8849367   -0.4855131   -4.2178037 
C     5.5704249    0.0886042   -4.2419120 
H     7.5197668   -0.7274828   -5.0129482 
H     5.0562111    0.4218085   -5.1432742 
