48
Energy =
C     3.6608055    4.2782560    0.4052876 
C     2.4205630    3.9473092   -0.0308321 
C     4.6381197    3.3424159    0.5231591 
C     4.3931073    2.0593971    0.1947105 
C     3.1592207    1.6901054   -0.2640966 
C     2.1047323    2.6704134   -0.3737293 
H     1.6681054    4.7298051   -0.0958810 
H     5.1953328    1.3423656    0.3231520 
H     2.1924817    1.1479371   -0.6614136 
H     3.8688438    5.3084065    0.6748226 
C     0.5646863    2.4553051   -0.8724331 
C     0.1486539    0.9255565   -1.2390723 
H     0.3851568    3.0943248   -1.7631899 
H    -0.1093346    2.8486553   -0.0787314 
C     1.3655805   -0.1424892   -1.2965624 
O     5.9115721    3.6787451    0.9921700 
H     6.0279194    4.6589100    1.2246527 
O     1.0804662   -1.3979935   -1.8162031 
N    -0.8749250    0.4692787   -0.2917036 
H    -0.2883750    0.9056584   -2.2649516 
H    -0.4965054    0.5159365    0.6843884 
H    -1.7138749    1.0933102   -0.3430931 
N     2.7669017    0.1282718   -0.8565191 
C     3.7787984   -0.3306720   -1.9013262 
H     2.8704231   -0.5254695   -0.0153204 
C     5.0932952   -0.7866727   -1.2708718 
O     6.2416003   -0.0205511   -1.4179052 
O     5.1677062   -1.9527417   -0.5143110 
H     4.2944988   -2.4596655   -0.5084827 
C     4.0404514    0.7154721   -3.0184613 
H     3.4192388   -1.2597394   -2.3942957 
C     2.8044901    1.1323389   -3.7774952 
H     4.7718296    0.2917924   -3.7431866 
H     4.5438900    1.6084144   -2.5888700 
C     2.0667698    0.3822637   -4.6132533 
C     2.2272821   -0.9081731   -5.0046019 
C     1.3233514   -1.4381081   -5.8772449 
C     0.2893766   -0.6778238   -6.3481568 
C     0.1544591    0.6192049   -5.9523502 
C     1.0586050    1.1201827   -5.0850809 
H     3.0515951   -1.5153264   -4.6442664 
H     1.4255841   -2.4722165   -6.1991904 
H    -0.4267972   -1.1097086   -7.0435189 
H    -0.6567614    1.2367916   -6.3239253 
N     1.1070595    2.4433458   -4.5679952 
C     2.2758602    2.3673418   -3.7383440 
H     0.4538513    3.2431731   -4.7427404 
H     2.6843656    3.1954256   -3.1581335 
