48
Energy =
C    -2.9490126    0.6660415   -3.8463932 
C    -1.7386774    1.0061943   -3.3360312 
C    -4.0575257    1.3779029   -3.5090438 
C    -3.9460235    2.4267236   -2.6625387 
C    -2.7378727    2.7714775   -2.1493845 
C    -1.6250950    2.0629850   -2.4854524 
H    -0.8632043    0.4288173   -3.6160841 
H    -4.8376127    2.9858044   -2.4007073 
H    -2.6704126    3.6148764   -1.4669316 
H    -3.0280145   -0.1764445   -4.5248156 
C    -0.2784535    2.4306309   -1.9031625 
C     0.1170730    1.5311637   -0.7092366 
H    -0.2584120    3.4971540   -1.5829874 
H     0.4953333    2.3522352   -2.6987956 
C     1.5592301    1.7876699   -0.3136091 
O    -5.3201499    1.0528177   -4.0157777 
H    -5.3186481    0.2595508   -4.6474161 
O     1.9448468    2.9413852   -0.0740547 
N    -0.7743134    1.7556834    0.4388437 
H     0.0483587    0.4619253   -1.0131025 
H    -0.7595595    2.7701850    0.7017312 
H    -1.7566198    1.5017584    0.1845368 
N     2.5340201    0.7337611   -0.3675883 
C     3.8524129    1.1565306   -0.8724889 
H     2.2825872   -0.2541982   -0.1363768 
C     3.9655398    2.6806049   -0.8226070 
O     5.0636853    3.3197376   -1.3894956 
O     3.0698266    3.3511886   -0.2867196 
H     2.6927024    3.0444751    0.5869786 
C     4.0491753    0.6257502   -2.3073682 
H     4.6498553    0.7618973   -0.2060210 
C     4.0521058   -0.8858227   -2.3503584 
H     5.0174477    0.9978095   -2.7138635 
H     3.2576863    1.0363251   -2.9703823 
C     3.0063949   -1.6899010   -2.6020666 
C     1.7200831   -1.3781122   -2.9054320 
C     0.8345364   -2.3964516   -3.1021618 
C     1.2436887   -3.6969106   -2.9950065 
C     2.5406364   -3.9864660   -2.6893932 
C     3.3973875   -2.9609809   -2.4998679 
H     1.3953728   -0.3471258   -2.9865532 
H    -0.2021150   -2.1744675   -3.3432399 
H     0.5320257   -4.5037252   -3.1517064 
H     2.8806595   -5.0123039   -2.5966271 
N     4.7744924   -3.0431689   -2.1604990 
C     5.1204901   -1.6544444   -2.0761677 
H     5.3710940   -3.8890701   -2.0112327 
H     6.1074208   -1.2813364   -1.8107572 
