48
Energy =
C    -0.0958337   -1.0067163    1.8560495 
C     0.6797029   -0.1460910    2.5637513 
C     0.4465040   -2.1326109    1.3186841 
C     1.7602976   -2.3946408    1.5029254 
C     2.5387467   -1.5389858    2.2090447 
C     2.0027887   -0.4075129    2.7460759 
H     0.2395308    0.7611906    2.9695789 
H     2.1875928   -3.2897006    1.0649948 
H     3.5998305   -1.7524160    2.3199406 
H    -1.1477725   -0.7851556    1.7113785 
C     2.8889989    0.5830036    3.4743835 
C     3.4269950    1.6960579    2.5448023 
H     3.7523459    0.0472589    3.9306869 
H     2.3308492    1.0348166    4.3231410 
C     4.1072410    1.1175557    1.3133893 
O    -0.3196168   -3.0266296    0.5631226 
H    -1.3031440   -2.7833678    0.5103960 
O     5.2694906    0.3741530    1.4862581 
N     2.3335178    2.6201338    2.1943435 
H     4.2294958    2.2506241    3.0872255 
H     2.0024141    3.1047499    3.0614850 
H     2.7166919    3.3786267    1.5784690 
N     3.3795396    0.9817692    0.0859315 
C     4.1104638    1.2831800   -1.1574296 
H     2.3864405    0.6647825    0.1228580 
C     4.2304109    2.7845372   -1.3827389 
O     5.4384242    3.3122807   -1.8189329 
O     3.1430537    3.6445842   -1.2183033 
H     2.3164014    3.1399311   -0.9370368 
C     3.4160807    0.6024967   -2.3562034 
H     5.1529827    0.8947078   -1.0827193 
C     3.2959136   -0.8950161   -2.1694616 
H     3.9950435    0.8042889   -3.2856345 
H     2.4071370    1.0465722   -2.5074161 
C     4.2825824   -1.8007393   -2.2575632 
C     5.5977583   -1.6305609   -2.5484392 
C     6.4039199   -2.7305498   -2.5706468 
C     5.8890721   -3.9701157   -2.3078112 
C     4.5641128   -4.1172170   -2.0218340 
C     3.7875718   -3.0139160   -2.0051314 
H     6.0083706   -0.6472738   -2.7589214 
H     7.4617845   -2.6198875   -2.7969132 
H     6.5387739   -4.8414188   -2.3268088 
H     4.1390717   -5.0928381   -1.8124192 
N     2.3949474   -2.9485767   -1.7329281 
C     2.1579816   -1.5396972   -1.8552256 
H     1.7187150   -3.7150634   -1.5037900 
H     1.1911857   -1.0641659   -1.7020226 
