48
Energy =
C     0.3057160    5.5069735   -2.6608445 
C    -0.2847146    4.3357231   -2.3084607 
C     0.5285997    6.4686219   -1.7264526 
C     0.1635071    6.2497809   -0.4434673 
C    -0.4178010    5.0775985   -0.0828783 
C    -0.6469087    4.1112274   -1.0146960 
H    -0.4475990    3.5720792   -3.0692982 
H     0.3493183    7.0248189    0.2917459 
H    -0.6949164    4.9220280    0.9559399 
H     0.6085439    5.6683529   -3.6903544 
C    -1.2769256    2.7931893   -0.6078787 
C    -0.2586056    1.6263241   -0.4872905 
H    -2.0656035    2.5225099   -1.3478227 
H    -1.8138404    2.9055191    0.3597898 
C     0.2870511    1.1853201   -1.8375349 
O     1.1255970    7.6894078   -2.0571138 
H     1.4310227    7.7455356   -3.0227206 
O    -0.5837621    1.1028637   -2.9156614 
N     0.8118778    1.9599301    0.4688252 
H    -0.8060121    0.7328846   -0.1107897 
H     1.3618563    2.7810018    0.1178369 
H     0.3881362    2.2480856    1.3808504 
N     1.5110109    0.4516584   -1.9358807 
C     2.7882203    1.1968706   -1.9966647 
H     1.4426366   -0.5880526   -1.9900063 
C     2.6576276    2.5819476   -2.6347237 
O     3.1392642    3.6888112   -1.9475115 
O     2.0705580    2.7733769   -3.8856182 
H     1.7023478    1.9023570   -4.2464783 
C     3.8457937    0.3549218   -2.7445587 
H     3.1415118    1.3718920   -0.9566002 
C     4.2568964   -0.8682647   -1.9550638 
H     4.7549396    0.9668708   -2.9430706 
H     3.4457588    0.0499329   -3.7375567 
C     5.0636706   -0.8975054   -0.8827932 
C     5.7175312    0.1151865   -0.2575567 
C     6.4859154   -0.1835397    0.8289748 
C     6.5888978   -1.4746516    1.2684335 
C     5.9241654   -2.4752726    0.6233085 
C     5.1701890   -2.1542989   -0.4490679 
H     5.6387985    1.1407515   -0.6070580 
H     7.0199935    0.6092701    1.3471862 
H     7.2039696   -1.7045923    2.1347619 
H     5.9957819   -3.5044871    0.9580746 
N     4.4037129   -3.0372894   -1.2563760 
C     3.8436327   -2.1226382   -2.2080374 
H     4.2816929   -4.0727236   -1.1745105 
H     3.1753116   -2.4091572   -3.0170795 
