48
Energy =
C    -1.5793925   -2.7371032   -2.7462738 
C    -0.7408004   -2.6417402   -1.6841244 
C    -1.1190353   -3.1937141   -3.9412536 
C     0.1784923   -3.5549298   -4.0639605 
C     1.0220015   -3.4597727   -3.0053047 
C     0.5670052   -3.0018383   -1.8064049 
H    -1.1220190   -2.2684810   -0.7365469 
H     0.5328530   -3.9204153   -5.0217277 
H     2.0624954   -3.7515297   -3.1231307 
H    -2.6175659   -2.4430251   -2.6371705 
C     1.5194780   -2.8688772   -0.6354154 
C     2.4088004   -1.6093094   -0.7587474 
H     2.1607589   -3.7759261   -0.5944976 
H     0.9661212   -2.8439140    0.3301125 
C     1.6241676   -0.2967441   -0.5709353 
O    -1.9545916   -3.2987255   -5.0579166 
H    -2.9145864   -3.0213908   -4.8829182 
O     0.3610021   -0.3392544    0.0139264 
N     3.5171138   -1.6967344    0.2052603 
H     2.8345875   -1.6114587   -1.7829565 
H     3.1292438   -1.8005133    1.1747462 
H     4.0939987   -2.5488467    0.0094420 
N     2.0691881    0.9973838   -1.0431070 
C     3.4424050    1.0860876   -1.6053650 
H     1.9392498    1.6470677   -0.2325482 
C     4.1921660    2.3344953   -1.1226409 
O     4.6868341    3.2628540   -2.0303230 
O     4.4641715    2.5292705    0.2309761 
H     4.1350621    1.7556245    0.7925905 
C     3.3533958    0.9878656   -3.1507289 
H     4.0955174    0.2643264   -1.2468079 
C     2.4337967    2.0275918   -3.7741583 
H     2.9621503   -0.0133040   -3.4261792 
H     4.3738215    1.0438555   -3.5839902 
C     2.7822674    3.0769263   -4.5429387 
C     4.0094457    3.5068762   -4.9392079 
C     4.0864260    4.6100274   -5.7379538 
C     2.9497787    5.2591592   -6.1307622 
C     1.7288889    4.8109208   -5.7251135 
C     1.6782785    3.7201715   -4.9320999 
H     4.9187974    3.0091000   -4.6180756 
H     5.0582932    4.9802226   -6.0563315 
H     3.0199370    6.1398283   -6.7646328 
H     0.8171562    5.3156294   -6.0268733 
N     0.5138314    3.0947902   -4.4157320 
C     1.0894804    2.0077153   -3.6810005 
H    -0.4921531    3.3496407   -4.5468535 
H     0.5102881    1.2674423   -3.1309807 
