48
 energy: -9.283145576046 gnorm: 0.000804771972 xtb: 6.6.0 (2ccbbd7)
C           -1.42410800074810        1.96377185647382        0.05517772617453
C           -0.06381888310597        2.04001020225191        0.22965662318307
C           -2.26552459609560        1.75038832357915        1.14797852912512
C           -1.68833482963141        1.61132530403262        2.41049952473651
C           -0.32565368354183        1.68603655156820        2.57520477991274
C            0.50488009931669        1.91063781635728        1.48832572166015
H            0.59222421574961        2.18247995360205       -0.61348109665822
H           -2.33727222273296        1.43571745924554        3.24980166443291
H            0.10958314588934        1.55996143660222        3.55159739426911
H           -1.85116315850426        2.06134609071919       -0.92675143316178
C            1.99407794832767        1.94939124554387        1.63854418725967
C            2.65238772191417        0.56201880163742        1.58207492014078
H            2.26196578853087        2.45606045201814        2.57102574155736
H            2.40927841028196        2.57157181130049        0.84005339654574
C            2.07719526355139       -0.29232579110377        0.46005599399686
O           -3.63838543759661        1.67389223981861        1.01220702546193
H           -3.88833715080588        1.76248786429248        0.06746117115932
O            1.14263159413010       -1.01270654858475        0.75784620244747
N            4.10914963892482        0.65660235678508        1.56343999887370
H            2.38008005877341        0.01679366384858        2.50162565228706
H            4.38125706552570        1.32106275291706        0.84339494992236
H            4.44785537555945        1.04142926515453        2.43586801022398
N            2.52244327236838       -0.26159658876590       -0.84632381791715
C            3.71782174733295        0.41890636980353       -1.35100768537447
H            2.03738498251425       -0.83222592374518       -1.53662294526311
C            3.60408349766611        1.91845211952141       -1.17080834546352
O            2.51997159146568        2.44173346479015       -1.30501244527349
O            4.76032920443146        2.56508779117814       -0.84961130935930
H            5.53980467249809        1.98598145585674       -1.00854295894780
C            4.00745542664450        0.07122327899873       -2.80926011952481
H            4.55639488137268        0.05413706261131       -0.74428977118309
C            5.32394634260714        0.60610047852124       -3.26188863607702
H            3.20671009088848        0.47532099036070       -3.43545238329385
H            3.98901815784511       -1.01456298961067       -2.94592876093395
C            6.59957805958408        0.25419432208890       -2.72759026913050
C            7.00625084653413       -0.67512878061417       -1.75449632885659
C            8.33391797036266       -0.75247465206947       -1.43731584744802
C            9.28102200758204        0.07332487890129       -2.06445312090977
C            8.90836315039883        0.98307511733398       -3.01563202371570
C            7.55306685330062        1.07891110248043       -3.35491296146807
H            6.28212357318202       -1.31781590995945       -1.28621423977509
H            8.66219037385820       -1.46144680786538       -0.69539741493246
H           10.31945932256625       -0.01401392575465       -1.79075945353168
H            9.62633407671048        1.62044043288937       -3.49976713142816
N            6.87578475912321        1.89575946511684       -4.24305046161504
C            5.53452489125563        1.61124696727110       -4.17377284329848
H            7.31099397867195        2.61789408058355       -4.81983781307608
H            4.76562920732839        2.12174656568209       -4.73111313873628
