48
Energy =
C     0.1959065   -5.0989619    1.4434162 
C     0.4663292   -3.7692994    1.4136360 
C    -0.2489028   -5.7315272    0.3247466 
C    -0.4197021   -5.0278409   -0.8174324 
C    -0.1507309   -3.6982716   -0.8531903 
C     0.2915531   -3.0597178    0.2646167 
H     0.8263078   -3.2794933    2.3148288 
H    -0.7738761   -5.5436453   -1.7031763 
H    -0.2921977   -3.1511131   -1.7815449 
H     0.3377323   -5.6554001    2.3635625 
C     0.6070879   -1.5809710    0.2199473 
C     1.9732702   -1.2920224   -0.4450488 
H     0.5886156   -1.1398592    1.2424938 
H    -0.2017194   -1.0615301   -0.3418599 
C     2.1443981    0.1967407   -0.6889902 
O    -0.5355105   -7.1006114    0.3212685 
H    -0.3860120   -7.5552560    1.2153179 
O     1.9648019    1.1007355    0.3528534 
N     3.0768735   -1.8117700    0.3797434 
H     2.0068805   -1.7814375   -1.4462931 
H     3.0156151   -1.4130656    1.3477109 
H     3.0049433   -2.8533184    0.4571685 
N     2.6366637    0.6741056   -1.9457373 
C     4.0052803    1.2205990   -1.9579398 
H     2.0216251    0.6368313   -2.7907766 
C     4.1430759    2.3297669   -2.9986869 
O     3.5772193    2.1605560   -4.2582438 
O     4.8958895    3.4796816   -2.7554931 
H     5.3175667    3.4775327   -1.8387086 
C     4.9885235    0.0639707   -2.2281794 
H     4.2307889    1.6787293   -0.9657077 
C     6.4259597    0.4944826   -2.0386580 
H     4.8293468   -0.3457312   -3.2500958 
H     4.7764289   -0.7716033   -1.5244344 
C     7.2597000    0.9799247   -2.9732935 
C     7.0603909    1.1833537   -4.3012240 
C     8.0819579    1.7074953   -5.0371855 
C     9.2741054    2.0168346   -4.4429685 
C     9.4510905    1.8059902   -3.1077728 
C     8.4255099    1.2863085   -2.4009117 
H     6.1118638    0.9503219   -4.7761297 
H     7.9432973    1.8872459   -6.1007642 
H    10.0814611    2.4386360   -5.0364246 
H    10.3879393    2.0519317   -2.6196143 
N     8.3979801    1.0063082   -1.0082371 
C     7.0651681    0.5022469   -0.8559480 
H     9.1469611    1.1345704   -0.2897724 
H     6.6320792    0.1839446    0.0898680 
