48
 energy: -9.285923538471 gnorm: 0.000661097317 xtb: 6.6.0 (2ccbbd7)
C           -2.83962876017645       -1.02975966917230        2.35060492312048
C           -1.56212274729353       -1.00951851292053        1.84245709440549
C           -3.93753123999072       -1.19776915811768        1.50596448349102
C           -3.70305945009467       -1.34139871468293        0.13890916256881
C           -2.42322288743803       -1.32159735705821       -0.36107286648545
C           -1.33366899809706       -1.16124347195368        0.48274462412859
H           -0.72172158452874       -0.87329877315300        2.50134810757077
H           -4.54917669193400       -1.46736787934095       -0.51262463783218
H           -2.25706070624204       -1.42908197342503       -1.41919975188697
H           -3.00529891931559       -0.91481458833232        3.40675634542848
C            0.05589347005641       -1.09736641224445       -0.06855176224172
C            0.57737560944437        0.33317580312139       -0.22411358958224
H            0.08992216636622       -1.59233694583408       -1.04337144558583
H            0.73819044029815       -1.66674805944993        0.57157403945043
C            1.99525187694511        0.32340027159989       -0.75204999075555
O           -5.23416470932406       -1.22397027178588        1.98317356886229
H           -5.23551576880841       -1.11001647704738        2.95805930602123
O            2.76924498041095       -0.52475722915502       -0.35756516590176
N           -0.28829696829920        1.13796705437946       -1.07684936028520
H            0.60298206608519        0.81396749537937        0.76607404153781
H           -0.31438365382209        0.73432334126474       -2.00395156525273
H           -1.23576999175692        1.13348003654645       -0.72276558138318
N            2.33493504544005        1.29740261301696       -1.66176899014569
C            3.70776358623820        1.50138683287730       -2.11706520082351
H            1.70572419954357        2.09257841030648       -1.82070184361362
C            3.70035567985230        2.44401981217430       -3.29943921240530
O            4.49372441915059        3.35999800695977       -3.32193301171281
O            2.80936741408315        2.14673491850018       -4.27670855967846
H            2.24290978529541        1.38873833230852       -3.99896553777442
C            4.39331487957454        0.18255746385472       -2.47562416871691
H            4.25937379596558        1.98474189444583       -1.29838955614330
C            5.83454950849537        0.29977612621720       -2.84712228314860
H            3.84542803807552       -0.29383655170546       -3.29322105373923
H            4.30418760174839       -0.49555066356454       -1.62137345099147
C            6.37627377056450        0.79273196159099       -4.07319272095441
C            5.79716606742851        1.35068476668936       -5.22696785387005
C            6.61183134320081        1.73167491289206       -6.25595723590186
C            8.00450638367927        1.57334965392716       -6.17627984797825
C            8.59319044615538        1.04281871583024       -5.06135401201831
C            7.77520672379308        0.65016952109164       -3.99435455724811
H            4.73699549554745        1.53089121063667       -5.25820524573448
H            6.18060301124559        2.17828248699393       -7.13663204165834
H            8.61880391116383        1.88564974151959       -7.00453146628523
H            9.65946300688412        0.92599073911085       -4.98722097555453
N            8.06869540169730        0.10100833710365       -2.75928848512956
C            6.89652739098459       -0.10254374078913       -2.07539717919013
H            9.01107115821701       -0.10404732560848       -2.42207332784037
H            6.82485486783828       -0.52979896084631       -1.08804968026365
