48
Energy =
C     2.7194245    0.7905458    1.7245570 
C     2.2348814    2.0329164    1.4758259 
C     2.0725395   -0.3040099    1.2429763 
C     0.9487171   -0.1468749    0.5071098 
C     0.4584396    1.0934419    0.2569838 
C     1.0958164    2.1918097    0.7469643 
H     2.7665991    2.8990291    1.8623001 
H     0.4453213   -1.0273012    0.1229322 
H    -0.4424477    1.2007370   -0.3424161 
H     3.6280622    0.6755786    2.3061554 
C     0.5714361    3.5793056    0.4516612 
C     1.3040370    4.2216888   -0.7492986 
H     0.7022104    4.2113362    1.3578123 
H    -0.5246913    3.5497496    0.2517978 
C     0.9576222    3.5220351   -2.0643328 
O     2.5443033   -1.5979437    1.4846807 
H     3.3465603   -1.6300712    2.1043303 
O    -0.3178463    3.7186934   -2.5831517 
N     0.9687558    5.6523854   -0.8264904 
H     2.4012621    4.1421907   -0.5915028 
H    -0.0675297    5.7730696   -0.9342817 
H     1.2613378    6.1409032    0.0517795 
N     1.6524210    2.3384321   -2.4994334 
C     3.1236395    2.2406842   -2.3798650 
H     1.0594670    1.5577303   -2.8632465 
C     3.8412651    3.5054062   -2.8558489 
O     4.7126978    4.1536276   -1.9902231 
O     3.6636858    4.0168620   -4.1398875 
H     2.9178279    3.5353965   -4.6215710 
C     3.6026311    0.9944384   -3.1562006 
H     3.3912840    2.0995238   -1.3079060 
C     5.0686660    0.7087575   -2.9092475 
H     3.4292608    1.1332507   -4.2467797 
H     2.9973166    0.1106193   -2.8599125 
C     5.5871998   -0.1009579   -1.9716696 
C     4.9644621   -0.8812958   -1.0510141 
C     5.7332082   -1.6246070   -0.2049281 
C     7.0971954   -1.5723799   -0.2842558 
C     7.7010251   -0.7777074   -1.2128718 
C     6.9188020   -0.0561542   -2.0428797 
H     3.8824806   -0.9271919   -0.9824145 
H     5.2571283   -2.2658845    0.5323502 
H     7.7026623   -2.1681171    0.3939841 
H     8.7816353   -0.7234777   -1.2889207 
N     7.3439385    0.8280628   -3.0699614 
C     6.0831612    1.2860291   -3.5780062 
H     8.3138636    1.0716470   -3.3760509 
H     5.9673846    2.0281218   -4.3681242 
