48
Energy =
C    -2.2634361   -0.2377848    0.0890049 
C    -0.9800669   -0.3261813    0.5232689 
C    -2.8478666   -1.2953015   -0.5346276 
C    -2.1424191   -2.4338286   -0.7225457 
C    -0.8584363   -2.5270392   -0.2926707 
C    -0.2719000   -1.4751543    0.3409172 
H    -0.5164737    0.5326390    1.0082790 
H    -2.6189825   -3.2685179   -1.2250371 
H    -0.3062188   -3.4481631   -0.4599708 
H    -2.8194638    0.6820207    0.2367700 
C     1.1680561   -1.5670084    0.7972385 
C     2.1477627   -1.1197588   -0.3104160 
H     1.3952145   -2.6134549    1.0974812 
H     1.3249416   -0.9441707    1.7074060 
C     1.9586478    0.3438862   -0.6758626 
O    -4.1672915   -1.2374869   -0.9939388 
H    -4.6257041   -0.3493785   -0.8213836 
O     1.8692947    1.3033806    0.3287895 
N     3.5344735   -1.3779975    0.1138519 
H     1.9413020   -1.7039584   -1.2370636 
H     3.7310693   -0.8435676    0.9952473 
H     3.6550462   -2.3954071    0.3295470 
N     2.2523755    0.7860301   -2.0027225 
C     3.6051083    1.3202698   -2.2288293 
H     1.5230876    0.7233994   -2.7485185 
C     3.5314455    2.7451045   -2.7671295 
O     3.8506003    3.0225886   -4.0910406 
O     3.1074148    3.7928996   -1.9522243 
H     2.7542458    3.4443251   -1.0691143 
C     4.3649385    0.3370043   -3.1470737 
H     4.1543300    1.4099869   -1.2600458 
C     5.8637239    0.5443772   -3.0835918 
H     3.9828084    0.4094073   -4.1878765 
H     4.1537692   -0.7035410   -2.8131417 
C     6.6627184    1.0820405   -4.0218075 
C     6.3657943    1.5646335   -5.2566049 
C     7.3802568    2.0594573   -6.0220723 
C     8.6636929    2.0613472   -5.5515488 
C     8.9408160    1.5684482   -4.3116332 
C     7.9201393    1.0865556   -3.5716644 
H     5.3495747    1.5709347   -5.6372770 
H     7.1643765    2.4589849   -7.0101765 
H     9.4657097    2.4600034   -6.1677488 
H     9.9536559    1.5627183   -3.9234407 
N     7.9984214    0.5282068   -2.2677588 
C     6.6239838    0.2018288   -2.0277410 
H     8.8338574    0.3898842   -1.6540178 
H     6.2501205   -0.2612019   -1.1161995 
