48
Energy =
C     2.0762543    0.6230611    4.5116542 
C     1.5841962    0.1739481    3.3275461 
C     2.9192641   -0.1556813    5.2396804 
C     3.2663488   -1.3776640    4.7773928 
C     2.7800409   -1.8292239    3.5935810 
C     1.9329325   -1.0552470    2.8591713 
H     0.9227031    0.8107206    2.7442403 
H     3.9415023   -1.9882330    5.3672387 
H     3.0772142   -2.8123164    3.2389607 
H     1.7999456    1.6084960    4.8723476 
C     1.3956219   -1.5582003    1.5310133 
C     2.1547683   -1.0179151    0.2796569 
H     0.3091472   -1.3133813    1.4627935 
H     1.4404759   -2.6712469    1.5187388 
C     1.6704317    0.3349889   -0.1693437 
O     3.4428529    0.2750348    6.4622018 
H     3.1478958    1.2065735    6.7342535 
O     1.8048902    1.4387851    0.6544924 
N     3.6203274   -1.0284669    0.4890350 
H     1.8867174   -1.6429847   -0.6201389 
H     3.8905837   -0.2864902    1.1858993 
H     3.9361337   -1.9500518    0.8756415 
N     1.3574078    0.5406041   -1.5473458 
C     2.5604820    0.9512195   -2.3226080 
H     0.6203060    1.2862124   -1.5647000 
C     2.5252968    2.4283235   -2.7312542 
O     2.3169941    2.7827659   -4.0589785 
O     2.7065338    3.4447878   -1.7974773 
H     2.7406060    3.0813930   -0.8546206 
C     2.6742854    0.0268223   -3.5572399 
H     3.5031802    0.8522362   -1.7280084 
C     2.9636419   -1.4034984   -3.1666936 
H     3.4730234    0.3832115   -4.2454466 
H     1.7221622    0.0681490   -4.1352938 
C     4.1375934   -1.9009629   -2.7478027 
C     5.3469423   -1.2959227   -2.6274977 
C     6.3925566   -2.0286056   -2.1472449 
C     6.2149296   -3.3388438   -1.7969411 
C     4.9900630   -3.9242124   -1.9244929 
C     3.9722749   -3.1788173   -2.4033827 
H     5.4880662   -0.2554376   -2.9038374 
H     7.3718800   -1.5678526   -2.0417317 
H     7.0534930   -3.9159896   -1.4154984 
H     4.8311876   -4.9614550   -1.6504251 
N     2.6244429   -3.5856100   -2.5940232 
C     2.0412518   -2.3794681   -3.0943933 
H     2.1634483   -4.5004540   -2.3857172 
H     0.9857715   -2.2668632   -3.3115670 
