48
Energy =
C    -3.1087356    3.0842147    1.3869551 
C    -1.8157973    2.7507244    1.1446921 
C    -3.9331794    2.2082924    2.0212799 
C    -3.4568880    1.0032197    2.4086748 
C    -2.1648383    0.6641835    2.1687973 
C    -1.3348563    1.5391338    1.5373617 
H    -1.1685502    3.4596164    0.6336337 
H    -4.1249756    0.3133070    2.9121965 
H    -1.8034493   -0.3111270    2.4833958 
H    -3.4814442    4.0524055    1.0706545 
C     0.1017524    1.1630271    1.2502073 
C     0.3192470    0.7482337   -0.2252208 
H     0.4444777    0.3458998    1.9231453 
H     0.7519017    2.0352409    1.4881619 
C     1.7917175    0.5637882   -0.5550502 
O    -5.2712028    2.5196037    2.2851296 
H    -5.5496046    3.4410643    1.9657802 
O     2.7604971    0.6702123    0.4424065 
N    -0.4327738   -0.4781952   -0.5389485 
H    -0.0304675    1.5744381   -0.8877816 
H    -0.2089329   -1.2223258    0.1634618 
H    -1.4601640   -0.2845147   -0.4801698 
N     2.1965140    0.4477781   -1.9277401 
C     3.5473749    0.9132536   -2.2992181 
H     1.5484217   -0.0220433   -2.6000035 
C     3.5125940    2.3771152   -2.7175230 
O     3.5746025    2.7210788   -4.0635946 
O     3.4202530    3.3978920   -1.7716152 
H     3.3196944    3.0316119   -0.8345320 
C     4.1114374    0.0028436   -3.4117541 
H     4.2456112    0.8693991   -1.4309341 
C     4.3699927   -1.3951485   -2.8959252 
H     5.0551227    0.4302837   -3.8185447 
H     3.3980670   -0.0268898   -4.2662777 
C     5.4628183   -1.8197822   -2.2426053 
C     6.5956523   -1.1476581   -1.9119289 
C     7.5684770   -1.8155445   -1.2276819 
C     7.3954866   -3.1284215   -0.8857511 
C     6.2477128   -3.7813651   -1.2251027 
C     5.3011959   -3.0999074   -1.9039727 
H     6.7335436   -0.1034326   -2.1763380 
H     8.4848936   -1.3002500   -0.9492073 
H     8.1741991   -3.6526841   -0.3372754 
H     6.0919311   -4.8205536   -0.9560094 
N     4.0374020   -3.5842503   -2.3356769 
C     3.4930739   -2.4124641   -2.9595402 
H     3.6238119   -4.5389434   -2.2282276 
H     2.4956249   -2.3480705   -3.3905047 
