48
Energy =
C     1.2335477    2.2469557    4.6997813 
C     1.0892086    1.6555882    3.4868162 
C     1.2380258    3.6028883    4.8027528 
C     1.0975175    4.3581690    3.6897869 
C     0.9527802    3.7722033    2.4741118 
C     0.9442641    2.4152403    2.3663749 
H     1.0900471    0.5701541    3.4185101 
H     1.1035557    5.4384610    3.7864303 
H     0.8451524    4.3967352    1.5913124 
H     1.3466250    1.6327688    5.5866710 
C     0.8051756    1.7533995    1.0138081 
C     2.1677560    1.2767899    0.4589934 
H     0.3136695    2.4359956    0.2856542 
H     0.1178451    0.8802801    1.1120725 
C     1.9684562    0.3857650   -0.7616533 
O     1.3873164    4.2443320    6.0364234 
H     1.4790596    3.6100453    6.8225067 
O     1.3167585   -0.8267060   -0.5769995 
N     3.0506849    2.4276291    0.1855309 
H     2.6524609    0.6043525    1.2076968 
H     2.5147906    3.1931359   -0.2891679 
H     3.3871666    2.8238777    1.0961013 
N     2.1052534    0.8779844   -2.1044408 
C     3.5246549    0.9280069   -2.5365564 
H     1.6531638    1.8204458   -2.1327934 
C     3.7465176    2.0375709   -3.5633896 
O     3.5524879    1.7857763   -4.9160853 
O     4.1180626    3.3248033   -3.1718515 
H     4.2030928    3.4190807   -2.1706931 
C     3.9255788   -0.4538387   -3.1165946 
H     4.2068832    1.1859829   -1.6932411 
C     4.4419616   -1.3922450   -2.0489430 
H     4.7129386   -0.3499716   -3.8977155 
H     3.0473465   -0.9018297   -3.6365541 
C     5.6573264   -1.3613292   -1.4807374 
C     6.7050308   -0.5296521   -1.7146532 
C     7.8449167   -0.7039077   -0.9860500 
C     7.9189982   -1.6942142   -0.0454247 
C     6.8532605   -2.5165904    0.1720852 
C     5.7375953   -2.3249119   -0.5624313 
H     6.6478612    0.2572466   -2.4617712 
H     8.6993645   -0.0523158   -1.1544921 
H     8.8311166   -1.8267526    0.5312805 
H     6.8944504   -3.3059724    0.9149430 
N     4.5232621   -3.0575320   -0.4886721 
C     3.7353625   -2.3859202   -1.4833661 
H     4.2712642   -3.8686731    0.1216806 
H     2.6957715   -2.6206234   -1.7162446 
