48
Energy =
C     0.4996202    5.6441835    0.6825851 
C     1.1776249    4.6529047    1.3147114 
C    -0.3695885    5.3469387   -0.3202475 
C    -0.5533399    4.0575263   -0.6843124 
C     0.1217041    3.0624690   -0.0556461 
C     0.9947534    3.3540860    0.9482014 
H     1.8677216    4.9073568    2.1150885 
H    -1.2472759    3.8320146   -1.4872661 
H    -0.0393994    2.0317351   -0.3661308 
H     0.6529218    6.6755232    0.9813586 
C     1.7582029    2.2440025    1.6431205 
C     3.0510786    1.8175800    0.9053849 
H     1.0924137    1.3556571    1.7437337 
H     2.0098573    2.5444597    2.6839734 
C     2.7767166    1.3172678   -0.5107202 
O    -1.0856106    6.3443497   -0.9903073 
H    -0.8808042    7.2860765   -0.6744608 
O     2.0640291    0.1357838   -0.6683889 
N     4.0707010    2.8825723    0.9601060 
H     3.4548442    0.9206465    1.4326938 
H     3.6824394    3.7873215    0.6019781 
H     4.3389069    3.0504105    1.9590997 
N     3.0390373    2.1176152   -1.6750685 
C     4.4613922    2.0272034   -2.0794961 
H     2.7432567    3.0966638   -1.4599920 
C     4.9654790    3.3545136   -2.6478138 
O     4.7123177    3.6855088   -3.9734740 
O     5.6290925    4.2845950   -1.8472998 
H     5.7759782    3.9521107   -0.9059410 
C     4.5873142    0.8821097   -3.1058664 
H     5.1252953    1.7954940   -1.2120030 
C     6.0331897    0.5626455   -3.4099499 
H     4.0474445    1.1568143   -4.0415130 
H     4.0752452   -0.0289599   -2.7236529 
C     6.8383428   -0.2496552   -2.7087224 
C     6.5730657   -0.9990597   -1.6077843 
C     7.5841047   -1.7407306   -1.0708978 
C     8.8307977   -1.7190532   -1.6331570 
C     9.0742194   -0.9547592   -2.7358496 
C     8.0568842   -0.2327475   -3.2505347 
H     5.5841824   -1.0152432   -1.1582297 
H     7.3978398   -2.3519748   -0.1911667 
H     9.6317239   -2.3117607   -1.1985345 
H    10.0582189   -0.9218535   -3.1910234 
N     8.1010757    0.6360455   -4.3736101 
C     6.7500056    1.1179586   -4.4026914 
H     8.9008711    0.8615687   -5.0083664 
H     6.3707718    1.8608384   -5.1050237 
