48
Energy =
C     6.3419228    1.6293790    4.1527370 
C     6.1439693    1.0772415    2.9290169 
C     6.0384509    0.9269351    5.2768166 
C     5.5381727   -0.3247802    5.1677090 
C     5.3380759   -0.8820278    3.9465041 
C     5.6431433   -0.1839739    2.8183344 
H     6.3897211    1.6523984    2.0405491 
H     5.2991096   -0.8740106    6.0716978 
H     4.9308813   -1.8874891    3.8809176 
H     6.7425804    2.6343440    4.2296884 
C     5.4077546   -0.7924912    1.4537379 
C     4.1228066   -0.2512247    0.7824122 
H     5.3557890   -1.9033362    1.5193485 
H     6.2896804   -0.5726401    0.8119598 
C     4.0365152   -0.7082650   -0.6635291 
O     6.2289619    1.4669854    6.5530269 
H     6.6097500    2.4068936    6.5492658 
O     3.9654833   -2.0666897   -0.9602950 
N     2.9258045   -0.6706825    1.5278839 
H     4.1581507    0.8626526    0.7608569 
H     2.9142824   -1.7146748    1.6234591 
H     2.9444138   -0.2617485    2.4910976 
N     4.2950829    0.2196620   -1.7225486 
C     5.6046548    0.1310852   -2.3902186 
H     3.5996502    0.9709784   -1.9340504 
C     6.2572624    1.4938575   -2.5317363 
O     6.4500209    1.9542813   -3.8248241 
O     6.6837550    2.2563259   -1.4511754 
H     6.4499772    1.8011998   -0.5833403 
C     5.4243880   -0.5384570   -3.7782623 
H     6.3159765   -0.4903940   -1.8001317 
C     4.4151429    0.1870488   -4.6611665 
H     5.0988187   -1.5905273   -3.6157645 
H     6.3999151   -0.5872798   -4.3101739 
C     4.4710707    1.4516946   -5.1619333 
C     5.4697794    2.4423712   -5.0803199 
C     5.1502719    3.6661988   -5.6186305 
C     3.9333252    3.9084011   -6.1819156 
C     2.9958498    2.9309335   -6.2416551 
C     3.2897164    1.7213282   -5.7321184 
H     6.7361044    2.5044570   -4.7498208 
H     5.8890620    4.4644101   -5.6007097 
H     3.7130126    4.8916123   -6.5906998 
H     2.0216175    3.1172974   -6.6813649 
N     2.4082402    0.6113977   -5.6628593 
C     3.2071497   -0.3295504   -4.9440414 
H     1.4350765    0.5084351   -6.0316291 
H     2.8518905   -1.3006621   -4.6050840 
