48
Energy =
C     2.1608967   -0.1480802    2.7817763 
C     1.8287317    0.9057577    1.9937343 
C     1.3494965   -1.2374745    2.8432624 
C     0.2096316   -1.2634777    2.1160750 
C    -0.1265366   -0.2128041    1.3257246 
C     0.6828593    0.8797309    1.2586962 
H     2.4894747    1.7682528    1.9478820 
H    -0.4291406   -2.1378079    2.1741663 
H    -1.0436330   -0.2551232    0.7443598 
H     3.0781266   -0.1180264    3.3601282 
C     0.3232738    2.0464221    0.3607681 
C     1.0064548    1.9901766   -1.0261198 
H     0.6092082    2.9988420    0.8617972 
H    -0.7784227    2.1001114    0.2230575 
C     2.5217698    2.0618770   -0.9218083 
O     1.6641541   -2.3419485    3.6415176 
H     2.5283771   -2.2395450    4.1622423 
O     3.0607494    3.1559162   -0.6961953 
N     0.5326856    0.8326950   -1.8041856 
H     0.7338792    2.9176563   -1.5848775 
H     0.7435029   -0.0594175   -1.3037835 
H    -0.5046826    0.8891046   -1.9240274 
N     3.3594471    0.8981177   -1.0488226 
C     4.6842470    1.1744745   -1.6338493 
H     3.0262342   -0.0481542   -0.7645243 
C     4.9491501    2.6814636   -1.6534275 
O     6.0184042    3.2019164   -2.3777488 
O     4.1928087    3.4444261   -1.0339509 
H     3.8864526    3.1668826   -0.1252103 
C     4.7759950    0.5376123   -3.0365488 
H     5.4687690    0.7310229   -0.9842943 
C     3.6423435    0.9709804   -3.9473756 
H     4.7919638   -0.5658593   -2.9298342 
H     5.7456345    0.8129626   -3.5092620 
C     2.5594364    0.2534732   -4.2924136 
C     2.2026140   -1.0131462   -3.9511604 
C     1.0320012   -1.5124311   -4.4417341 
C     0.2422197   -0.7486498   -5.2552024 
C     0.6179837    0.5198576   -5.5827215 
C     1.7809302    0.9915182   -5.0866606 
H     2.8174686   -1.6205372   -3.2965543 
H     0.7232633   -2.5211863   -4.1802345 
H    -0.6905779   -1.1524935   -5.6395718 
H     0.0016130    1.1407866   -6.2232900 
N     2.3450418    2.2766041   -5.3044012 
C     3.5458631    2.1830877   -4.5247473 
H     1.9877061    3.0695417   -5.8845452 
H     4.2621422    2.9939792   -4.3935369 
