48
Energy =
C     1.1285108   -5.5479825    1.2676987 
C     1.3723504   -4.3116223    0.7642705 
C     0.1040317   -6.2958019    0.7777597 
C    -0.6699033   -5.8004152   -0.2143085 
C    -0.4309187   -4.5646029   -0.7217771 
C     0.5916276   -3.8101429   -0.2327926 
H     2.1973271   -3.7294334    1.1656084 
H    -1.4824433   -6.4079230   -0.5974110 
H    -1.0623599   -4.1861445   -1.5215783 
H     1.7562588   -5.9370617    2.0620441 
C     0.8669309   -2.4391742   -0.8120252 
C     1.6246178   -2.5296281   -2.1584334 
H     1.4422062   -1.8194412   -0.0898387 
H    -0.1051959   -1.9175038   -0.9629526 
C     1.6243647   -1.2029175   -2.9195815 
O    -0.1740535   -7.5735343    1.2741564 
H     0.4514695   -7.8715481    2.0146478 
O     0.9702427   -1.1575026   -4.1443070 
N     2.9937688   -3.0606491   -1.9757932 
H     1.0533079   -3.2181615   -2.8308666 
H     3.3228962   -2.9678906   -0.9859775 
H     2.9813952   -4.0927454   -2.1603928 
N     2.0217115    0.0525038   -2.3302631 
C     3.4264512    0.0785365   -1.8611062 
H     1.3766234    0.2219701   -1.5256484 
C     3.7542565    1.3737014   -1.1248199 
O     4.7432855    1.3555372   -0.1517708 
O     3.1730393    2.5972741   -1.4585029 
H     2.4938958    2.5003271   -2.2012455 
C     4.4296866   -0.1799828   -3.0177357 
H     3.5776131   -0.7072156   -1.0911581 
C     4.3751961    0.8599877   -4.1238079 
H     4.2653216   -1.2009722   -3.4252455 
H     5.4620323   -0.2023962   -2.6027171 
C     3.9040479    0.6987544   -5.3739516 
C     3.3638637   -0.3943330   -5.9743765 
C     2.9681822   -0.2932037   -7.2752229 
C     3.1244820    0.8812448   -7.9561416 
C     3.6784406    1.9626656   -7.3399087 
C     4.0568869    1.8402527   -6.0503385 
H     3.2326203   -1.3329669   -5.4468245 
H     2.5208235   -1.1518921   -7.7704435 
H     2.8048469    0.9526157   -8.9926109 
H     3.8137978    2.9006209   -7.8673417 
N     4.6669842    2.8348025   -5.2421978 
C     4.8491002    2.1169359   -4.0151358 
H     4.9218641    3.8204184   -5.4827610 
H     5.3130312    2.5376576   -3.1228855 
