48
 energy: -9.208428113598 gnorm: 0.000743612797 xtb: 6.6.0 (2ccbbd7)
C            1.57000400537302        8.44950382884887       -3.54140757042225
C            1.27328390814355        7.30857465842749       -2.83370231803454
C            2.63499400852137        8.47081274716098       -4.44303485494071
C            3.38604322004529        7.30717973487024       -4.60656874547902
C            3.08191211323116        6.17231023112852       -3.89598012158695
C            2.02650493462842        6.15485425634763       -2.99678618242117
H            0.44636144076945        7.30253146259411       -2.14442897201890
H            4.20421221388721        7.31980551599906       -5.30443262177380
H            3.65756633781258        5.27216097330559       -4.03131331849151
H            0.98094833597779        9.33891439030850       -3.40750451371294
C            1.68300568077336        4.89278938138293       -2.26795207647866
C            1.00410075781422        3.85872600452862       -3.16918667609697
H            1.02413726824451        5.11246448082824       -1.42299423699717
H            2.59416543306050        4.46572407888604       -1.83665928859195
C            0.72497980161627        2.57984227283058       -2.41124122835853
O            2.95783127049684        9.60084071043373       -5.16938924129456
H            2.34450283983914       10.33302755344825       -4.94377643006196
O           -0.32292924690712        2.52813728203716       -1.79897377490843
N           -0.25278093563203        4.34864326203503       -3.71484213402520
H            1.65089090073500        3.64131182744455       -4.03125532928580
H           -0.96802825639462        4.23990158193440       -3.00028953281748
H           -0.18315923194070        5.32865181483881       -3.95930166572539
N            1.61197927924305        1.51513622570254       -2.40467511644494
C            3.06816703762524        1.60401174441369       -2.61377865559609
H            1.35441259876020        0.70787436564864       -1.84218784657384
C            3.42829912029242        2.40502812065856       -3.84524227159913
O            4.10870433509846        3.39367685347514       -3.66645227763026
O            2.98668448161743        2.00066578874612       -5.05783964711933
H            2.28526486619713        1.13563097803365       -5.17255040811552
C            3.70905819640314        0.21940034388293       -2.71674825625626
H            3.47930303935986        2.13770241929744       -1.74408605474496
C            3.24387928661744       -0.47099235389773       -3.94083401479133
H            3.46657087117130       -0.38228297911829       -1.83553783855027
H            4.79921433714595        0.31581944985129       -2.74914821373371
C            3.78149231473585       -1.56735491918386       -4.58493164165845
C            4.87499832902195       -2.40738173932086       -4.25449286790692
C            5.16082286537056       -3.46808093326625       -5.06961595437941
C            4.39608743650648       -3.73702813592087       -6.21473475737211
C            3.33074858481016       -2.93881932298207       -6.57213607619131
C            3.01584780478259       -1.84146381755658       -5.77832266947790
H            5.45556962729730       -2.20548074388302       -3.37222101340687
H            5.98866062895768       -4.11360747021075       -4.82748296104104
H            4.65036678734454       -4.58408165192209       -6.82982234117240
H            2.75032873063307       -3.14023547289882       -7.45443395516353
N            2.02438103950383       -0.88695887766505       -5.91035216212751
C            2.08929356584450       -0.01137073158079       -4.75434971534418
H            1.09928829170242       -1.07054131631034       -6.30787423986868
H            1.51865812760160        1.08648280289898       -4.81112247152495
