48
Energy =
C     3.3316004   -5.5496577    2.4154215 
C     2.7964149   -4.3081185    2.2961255 
C     3.1311410   -6.4772236    1.4412400 
C     2.3953785   -6.1550345    0.3531910 
C     1.8582076   -4.9152673    0.2284234 
C     2.0533407   -3.9843593    1.2020265 
H     2.9697503   -3.5763721    3.0810533 
H     2.2426880   -6.9028383   -0.4170623 
H     1.2716395   -4.6748467   -0.6544499 
H     3.9214543   -5.7982918    3.2910050 
C     1.4698507   -2.5968302    1.0534611 
C     2.2942372   -1.7102660    0.0876391 
H     1.3798572   -2.0922401    2.0415780 
H     0.4264309   -2.6871678    0.6744845 
C     1.5816045   -0.4004086   -0.2276732 
O     3.6703141   -7.7647711    1.5322056 
H     4.2024791   -7.9295042    2.3796031 
O     0.4460840   -0.0322619    0.4885836 
N     3.6371958   -1.4561935    0.6370201 
H     2.3895682   -2.2371684   -0.8901007 
H     3.5580532   -1.0798583    1.6124794 
H     4.1737348   -2.3539893    0.6876622 
N     1.8694018    0.2882656   -1.4550139 
C     3.0602489    1.1702925   -1.3215002 
H     1.0057237    0.8317882   -1.6781517 
C     2.7426540    2.6365588   -1.0123556 
O     3.4877949    3.2805119   -0.0346236 
O     1.8221210    3.3927053   -1.7398880 
H     1.3476186    2.8557793   -2.4464616 
C     3.9574778    1.0102576   -2.5672754 
H     3.6966023    0.8544379   -0.4582820 
C     3.2825237    1.4297467   -3.8552969 
H     4.2790196   -0.0513168   -2.6449687 
H     4.8917635    1.6012026   -2.4291917 
C     2.5025813    0.6715126   -4.6429721 
C     2.1411280   -0.6316466   -4.5183511 
C     1.3201265   -1.1702651   -5.4647830 
C     0.8772309   -0.4076493   -6.5099435 
C     1.2523129    0.8989039   -6.6143167 
C     2.0658669    1.4084105   -5.6658381 
H     2.4864789   -1.2374202   -3.6858631 
H     1.0142866   -2.2107227   -5.3858377 
H     0.2214614   -0.8439460   -7.2594214 
H     0.9074614    1.5186888   -7.4351358 
N     2.5613342    2.7371884   -5.5838602 
C     3.3408432    2.6665608   -4.3818975 
H     2.3997240    3.5460756   -6.2278070 
H     3.8645860    3.5110755   -3.9336593 
