48
Energy =
C    -3.4908959    0.1936016   -2.1366628 
C    -2.4071605    1.0100140   -2.1585633 
C    -4.3477602    0.2232857   -1.0810816 
C    -4.1133785    1.0710986   -0.0537055 
C    -3.0312938    1.8900788   -0.0705132 
C    -2.1723215    1.8660016   -1.1261567 
H    -1.7301996    0.9742570   -3.0079638 
H    -4.8033263    1.0840896    0.7829311 
H    -2.8571852    2.5604643    0.7672012 
H    -3.6699099   -0.4834030   -2.9648201 
C    -0.9553574    2.7637406   -1.1446056 
C     0.3392261    2.0110266   -0.7532408 
H    -1.0926805    3.6390557   -0.4713752 
H    -0.8449375    3.1964687   -2.1644928 
C     1.5817186    2.8409389   -1.0274043 
O    -5.4727580   -0.6060778   -1.0265464 
H    -5.5805096   -1.2077302   -1.8356247 
O     1.4822486    4.0991854   -1.6107384 
N     0.2941426    1.6080227    0.6621202 
H     0.4482750    1.1035918   -1.3907728 
H     0.1168860    2.4476191    1.2641935 
H    -0.4927272    0.9351322    0.8174357 
N     2.8775137    2.3025815   -0.7283168 
C     3.9429933    2.4030837   -1.7454806 
H     3.0003696    1.7811234    0.1703217 
C     4.4020630    3.8468646   -1.9312094 
O     5.7576115    4.1107229   -2.0876089 
O     3.4972521    4.8980360   -2.0038282 
H     2.4925417    4.4984000   -1.8082063 
C     3.4727183    1.7534396   -3.0704567 
H     4.8237870    1.8452398   -1.3608221 
C     4.5281120    1.6386787   -4.1622643 
H     2.6224010    2.3526435   -3.4672439 
H     3.0906017    0.7329483   -2.8503020 
C     4.2711767    1.3766821   -5.4558197 
C     3.0800198    1.1975052   -6.0851008 
C     3.0858717    0.9343448   -7.4234693 
C     4.2677672    0.8510741   -8.1057017 
C     5.4512027    1.0289005   -7.4533267 
C     5.4189339    1.2901044   -6.1297416 
H     2.1387994    1.2602397   -5.5473330 
H     2.1458200    0.7907427   -7.9512499 
H     4.2644054    0.6416831   -9.1727922 
H     6.3979951    0.9633622   -7.9792553 
N     6.5286098    1.4908276   -5.2695663 
C     5.8690484    1.7005871   -4.0123671 
H     7.5513938    1.4738681   -5.4909627 
H     6.3981577    1.8941147   -3.0810165 
