48
Energy =
C     0.6583134   -2.7645827    1.1781164 
C     0.2932426   -2.0378643    0.0919249 
C     0.8558476   -2.1516985    2.3758946 
C     0.6886368   -0.8132965    2.4774373 
C     0.3236448   -0.0816467    1.3942144 
C     0.1165949   -0.6916712    0.1953120 
H     0.1545296   -2.5399980   -0.8634530 
H     0.8545077   -0.3345504    3.4366663 
H     0.2025403    0.9940122    1.4921010 
H     0.7965359   -3.8363158    1.0844087 
C    -0.2574050    0.1259169   -1.0215759 
C     0.9826683    0.7623320   -1.6858578 
H    -0.9733413    0.9224398   -0.7226579 
H    -0.7890967   -0.5104773   -1.7657926 
C     1.9511950   -0.2942997   -2.1887522 
O     1.2337809   -2.8711112    3.5139689 
H     1.3349446   -3.8676350    3.3559313 
O     1.5758935   -1.1527985   -3.2176705 
N     0.5629076    1.6452878   -2.7847445 
H     1.5332862    1.3742472   -0.9330952 
H     0.0204222    1.0938690   -3.4935722 
H    -0.0641816    2.3983566   -2.4164402 
N     3.1553949   -0.5741780   -1.4647665 
C     4.4412948   -0.1185406   -2.0246926 
H     3.0928165   -1.1044880   -0.5665865 
C     4.6401314    1.3905029   -1.8739107 
O     5.5400426    1.8593754   -0.9252210 
O     3.9717626    2.3229172   -2.6703381 
H     3.2453334    1.9009699   -3.2283861 
C     4.6144090   -0.6300937   -3.4743822 
H     5.2511435   -0.5791279   -1.4134593 
C     6.0098275   -0.3678558   -3.9946373 
H     3.8644414   -0.1681763   -4.1540234 
H     4.3912203   -1.7194764   -3.5053766 
C     7.0852238   -1.1575852   -3.8467020 
C     7.1998413   -2.3695691   -3.2450422 
C     8.4261215   -2.9665574   -3.2193830 
C     9.5073995   -2.3486580   -3.7848106 
C     9.3690909   -1.1289471   -4.3782700 
C     8.1451429   -0.5605949   -4.3938930 
H     6.3449481   -2.8588213   -2.7881769 
H     8.5451439   -3.9370539   -2.7433323 
H    10.4822834   -2.8291823   -3.7569361 
H    10.2175627   -0.6213341   -4.8244494 
N     7.7916121    0.7031677   -4.9377923 
C     6.3921928    0.7557628   -4.6275344 
H     8.3908600    1.4013502   -5.4353225 
H     5.7453187    1.6094319   -4.8325892 
