48
 energy: -9.284722182226 gnorm: 0.000562252829 xtb: 6.6.0 (2ccbbd7)
C            0.62027106994612        2.47155980073008       -5.70677281616339
C            0.57907097933288        2.23840743881004       -4.35393583016731
C           -0.45829799531678        2.12106488107553       -6.51892772858390
C           -1.56782092722626        1.52473046531876       -5.92013026913796
C           -1.59622238480897        1.28715703325365       -4.56637467740001
C           -0.52646017957519        1.64622085163053       -3.75982326683081
H            1.43108352083455        2.49181806196014       -3.74658409962105
H           -2.39528649080816        1.24535246130661       -6.54749267056415
H           -2.45061801008718        0.80712183541400       -4.12106084028464
H            1.49486226043310        2.91303550274801       -6.15080423195205
C           -0.52698990496556        1.32181392103932       -2.29534115803869
C            0.12322447838140       -0.03168694332406       -1.98945960692242
H           -1.55190585730093        1.33891617249369       -1.91230588720908
H            0.00742109925165        2.10549985212720       -1.75087487339152
C            1.54946339199034       -0.05476162401901       -2.48950608976298
O           -0.45283618865343        2.34516359330758       -7.88213387858547
H            0.40373083741659        2.73872328583132       -8.15413160901038
O            1.76669043567417       -0.55274078128582       -3.57535828765290
N            0.04658266079254       -0.39815302392042       -0.57925218948819
H           -0.40819467184385       -0.81202950636178       -2.55751615689631
H            0.50507689912010        0.30059691243003       -0.01023668089883
H           -0.91819989306522       -0.43461170611744       -0.27497018011946
N            2.52347220913747        0.52268934195677       -1.70744710462686
C            3.84287727363503        0.86469173053143       -2.24631571321972
H            2.26440390822725        1.00843746607056       -0.84763901463109
C            3.72993158533768        2.13687862308502       -3.06667617135755
O            4.27171061853720        2.19620678299865       -4.14937227034970
O            3.00900310308870        3.13782289049427       -2.50464693377886
H            2.70048458766136        2.87658323653351       -1.60552055754723
C            4.44357555300421       -0.27093138322602       -3.07393982682137
H            4.51576541205688        1.06361843010593       -1.39955754231252
C            4.68137156766400       -1.52238092891079       -2.29803005203397
H            5.37635399521695        0.07104707064199       -3.53267362644583
H            3.76140491508821       -0.48406693400323       -3.90347628946098
C            5.80140851337578       -2.39803697225891       -2.41387039589320
C            6.97558057291952       -2.35273986289953       -3.18494098622319
C            7.87115194698021       -3.38017569676782       -3.07483369390761
C            7.63335586894421       -4.46321401521861       -2.21288055161589
C            6.49786318691831       -4.52831148170787       -1.45266599922700
C            5.56726625642285       -3.48619175451792       -1.54984131844260
H            7.15246542267028       -1.52416336532866       -3.84731930136026
H            8.77472074850766       -3.36193239083569       -3.66132243100482
H            8.35902898139444       -5.25725720365627       -2.15208979391770
H            6.30592302080427       -5.35549185800671       -0.79316615451443
N            4.34387969227807       -3.27766744341973       -0.93667198670066
C            3.81872081958370       -2.09865401634518       -1.40043593380193
H            3.90001156867486       -3.92391373267747       -0.28170313555013
H            2.86627857244297       -1.68845958559115       -1.11156705863029
