48
Energy =
C     1.6023859    1.7415696    4.8460589 
C     1.3114811    1.1584777    3.6553223 
C     2.8971197    1.9000776    5.2316450 
C     3.8926092    1.4756929    4.4209054 
C     3.6076009    0.8928038    3.2295847 
C     2.3135719    0.7271395    2.8414424 
H     0.2720031    1.0407651    3.3596709 
H     4.9202427    1.6106939    4.7391521 
H     4.4199845    0.5600820    2.5896418 
H     0.7970790    2.0806993    5.4887064 
C     2.0013395    0.0836935    1.5100042 
C     2.1708195    1.0692918    0.3293394 
H     0.9738420   -0.3444560    1.5012541 
H     2.6786109   -0.7879950    1.3755363 
C     2.3002853    0.3143020   -0.9848252 
O     3.2321729    2.4944884    6.4525317 
H     2.4311356    2.7901882    7.0000483 
O     1.4124110   -0.7180959   -1.2697543 
N     1.0466828    2.0168322    0.2774900 
H     3.1114648    1.6450555    0.4673537 
H     0.1441574    1.4942979    0.1675138 
H     0.9959904    2.5594535    1.1711496 
N     3.0947317    0.8345243   -2.0568084 
C     4.5644106    0.8359100   -1.9140100 
H     2.5915852    1.2474523   -2.8760486 
C     5.1906552    1.8647436   -2.8549091 
O     6.1397959    1.4806223   -3.7951234 
O     4.8508387    3.2136126   -2.7668661 
H     4.1233447    3.3701949   -2.0837034 
C     5.1138079   -0.5930553   -2.1520040 
H     4.8554133    1.1783915   -0.8986535 
C     4.9186849   -1.4898474   -0.9486326 
H     6.2025242   -0.5648449   -2.3829356 
H     4.6177197   -1.0312784   -3.0476227 
C     5.5925829   -1.4317802    0.2113771 
C     6.5996056   -0.6045250    0.5920856 
C     7.1045834   -0.7355973    1.8522370 
C     6.6007950   -1.6800285    2.7036558 
C     5.5912750   -2.5018719    2.2980570 
C     5.1125602   -2.3557822    1.0448461 
H     7.0014913    0.1464414   -0.0822889 
H     7.9128707   -0.0861432    2.1803104 
H     7.0085922   -1.7780918    3.7072118 
H     5.1789343   -3.2558166    2.9607063 
N     4.0615183   -3.0911072    0.4358434 
C     3.9986297   -2.4657792   -0.8536527 
H     3.4840794   -3.8755310    0.8181880 
H     3.2747412   -2.7199730   -1.6269417 
