48
Energy =
C     3.2456938    1.5746323    6.2622083 
C     3.0866569    0.8261019    5.1413101 
C     4.3327337    2.3804923    6.3978863 
C     5.2533514    2.4326556    5.4087148 
C     5.0999726    1.6858665    4.2860237 
C     4.0159682    0.8744233    4.1472208 
H     2.2098607    0.1909151    5.0465430 
H     6.1137427    3.0820418    5.5275355 
H     5.8488607    1.7441119    3.5001314 
H     2.5008489    1.5280380    7.0492473 
C     3.8365162    0.0554995    2.8878619 
C     3.3528845    0.9113744    1.6913501 
H     3.1302343   -0.7881107    3.0571083 
H     4.8103430   -0.4209450    2.6326294 
C     3.3396942    0.1161032    0.3906377 
O     4.5268040    3.1640076    7.5402610 
H     3.7924174    3.0709905    8.2333004 
O     3.6193779   -1.2465487    0.3945517 
N     2.0191759    1.4747290    1.9617399 
H     4.0827462    1.7395909    1.5378645 
H     1.3653206    0.7166981    2.2725511 
H     2.0841726    2.1712988    2.7423020 
N     3.0624990    0.7466543   -0.8701700 
C     4.2366758    1.4477339   -1.4442676 
H     2.1722829    1.2899041   -0.8345967 
C     4.3100170    2.9655790   -1.1845886 
O     5.3381344    3.6812630   -1.7828265 
O     3.4310089    3.6825256   -0.3714545 
H     2.7383729    3.1231743    0.0899813 
C     4.2411221    1.1452754   -2.9610364 
H     5.1790534    1.0348863   -1.0077054 
C     5.6411537    1.1228285   -3.5378143 
H     3.6071369    1.8820323   -3.5034154 
H     3.7732895    0.1524750   -3.1495857 
C     6.5134695    0.1056373   -3.4665130 
C     6.3752395   -1.1188130   -2.8956265 
C     7.4313843   -1.9800348   -2.9477712 
C     8.5971872   -1.6076990   -3.5586372 
C     8.7145959   -0.3700515   -4.1189723 
C     7.6545744    0.4629640   -4.0570102 
H     5.4537226   -1.4121153   -2.3979550 
H     7.3463503   -2.9657197   -2.4961017 
H     9.4354952   -2.2990199   -3.5925315 
H     9.6348422   -0.0558079   -4.5995459 
N     7.5748941    1.7914890   -4.5537285 
C     6.2401560    2.1505229   -4.1651295 
H     8.2922016    2.3510028   -5.0696704 
H     5.7971563    3.1368446   -4.3033344 
