48
Energy =
C    -0.8674751    5.6672706   -1.0907932 
C     0.1031775    4.9427002   -1.7051390 
C    -1.9057545    6.1669568   -1.8117864 
C    -1.9664180    5.9365476   -3.1426146 
C    -1.0000404    5.2108704   -3.7602657 
C     0.0434165    4.7079050   -3.0433430 
H     0.9238343    4.5354844   -1.1187530 
H    -2.8006179    6.3398639   -3.7061249 
H    -1.0712027    5.0363855   -4.8303743 
H    -0.8144290    5.8417509   -0.0214004 
C     1.1232433    3.8931881   -3.7295959 
C     0.9335227    2.3528483   -3.6265127 
H     2.1213731    4.1851169   -3.3251591 
H     1.1665029    4.1698287   -4.8053560 
C     1.4107270    1.7704562   -2.3022998 
O    -2.9211022    6.9183897   -1.2115483 
H    -2.8104395    7.0361394   -0.2103238 
O     0.8057204    2.1197839   -1.0995830 
N    -0.4510881    1.9520542   -3.9235522 
H     1.5946783    1.8884928   -4.3953563 
H    -1.0692726    2.2244534   -3.1195308 
H    -0.7989554    2.4465784   -4.7767248 
N     2.6019043    0.9776381   -2.2606863 
C     3.7254984    1.5040238   -1.4624559 
H     2.6556121    0.1163773   -2.8502051 
C     3.9963097    2.9720337   -1.7793561 
O     4.6583177    3.3173086   -2.9502072 
O     3.4866549    3.9981682   -0.9829112 
H     2.9889660    3.6299659   -0.1832258 
C     4.9866830    0.6430991   -1.7054088 
H     3.4605531    1.4522498   -0.3833313 
C     4.8762251   -0.8025663   -1.2460910 
H     5.8515340    1.1065498   -1.1793096 
H     5.2196807    0.6583043   -2.7942819 
C     5.8095319   -1.7467777   -1.4467996 
C     7.0076532   -1.6590913   -2.0804321 
C     7.7870927   -2.7763975   -2.1512123 
C     7.3628334   -3.9507821   -1.5932922 
C     6.1566165   -4.0145296   -0.9609163 
C     5.4040423   -2.8956539   -0.9050779 
H     7.3455680   -0.7262111   -2.5227933 
H     8.7506967   -2.7328250   -2.6533659 
H     7.9896127   -4.8370698   -1.6532158 
H     5.8052740   -4.9372757   -0.5117453 
N     4.1313989   -2.7469224   -0.2956001 
C     3.8603358   -1.3636063   -0.5564144 
H     3.5478706   -3.4530892    0.2087260 
H     2.9496905   -0.8594246   -0.2409358 
