48
Energy =
C     0.6667513   -5.2267533    0.4347526 
C     0.5469513   -3.9434816    0.0099332 
C     1.1056413   -5.4916789    1.6943266 
C     1.4215945   -4.4688653    2.5207299 
C     1.3038853   -3.1835231    2.1013408 
C     0.8622876   -2.9132376    0.8422361 
H     0.1971608   -3.7474048   -1.0005693 
H     1.7712020   -4.6937754    3.5223453 
H     1.5679697   -2.3765646    2.7797319 
H     0.4118791   -6.0401847   -0.2359642 
C     0.7455987   -1.4842315    0.3605163 
C     1.9249779   -1.0751668   -0.5524221 
H     0.6757566   -0.7789859    1.2195719 
H    -0.2131362   -1.3724457   -0.1943313 
C     1.6601428    0.2718415   -1.1994323 
O     1.2428015   -6.8024509    2.1628458 
H     0.9806303   -7.5107091    1.4859760 
O     1.3111333    1.3579463   -0.4018260 
N     3.1904379   -1.0499001    0.2031603 
H     2.0117671   -1.8046298   -1.3916224 
H     3.0827116   -0.4356484    1.0461325 
H     3.4159670   -2.0145014    0.5421656 
N     2.1620052    0.5332683   -2.5163242 
C     3.5459276    1.0742669   -2.4554519 
H     1.4947575    1.2216855   -2.9399980 
C     3.6507864    2.4696262   -3.0780502 
O     4.1427981    2.6376767   -4.3664258 
O     3.1968435    3.5930239   -2.3895390 
H     2.7238445    3.3371395   -1.5321099 
C     4.4781223    0.0391383   -3.1223066 
H     3.8917095    1.2180577   -1.4005620 
C     5.9353096    0.2790732   -2.7852266 
H     4.3049171    0.0225662   -4.2199594 
H     4.2080830   -0.9763877   -2.7566986 
C     6.8995529    0.7574748   -3.5907602 
C     6.8467155    1.1362237   -4.8943891 
C     7.9885099    1.5906299   -5.4857526 
C     9.1554955    1.6556562   -4.7768032 
C     9.1878556    1.2667549   -3.4710669 
C     8.0448651    0.8230077   -2.9069546 
H     5.9241776    1.0916020   -5.4643198 
H     7.9674874    1.9070986   -6.5259845 
H    10.0603533    2.0213681   -5.2558145 
H    10.1055011    1.3121888   -2.8944658 
N     7.8696925    0.3705463   -1.5717872 
C     6.4763038    0.0362386   -1.5775287 
H     8.5697762    0.2987496   -0.7980921 
H     5.9338179   -0.3601934   -0.7210803 
