48
Energy =
C     1.4396723   -2.8318987   -2.9575242 
C     0.4846095   -1.8664490   -2.9513987 
C     1.8876137   -3.3410386   -4.1354152 
C     1.3704499   -2.8877234   -5.2998001 
C     0.4129470   -1.9258802   -5.2993520 
C    -0.0335786   -1.4049440   -4.1238889 
H     0.1404203   -1.4520561   -2.0022344 
H     1.7339499   -3.3056248   -6.2326890 
H     0.0099613   -1.5740103   -6.2458490 
H     1.8482477   -3.1930965   -2.0193400 
C    -1.0834424   -0.3103411   -4.1177651 
C    -0.4885316    1.1202736   -4.1366341 
H    -1.7252248   -0.4148025   -3.2134461 
H    -1.7709496   -0.4354213   -4.9827993 
C     0.4805898    1.3678387   -2.9892999 
O     2.8789966   -4.3249994   -4.1771407 
H     3.2118142   -4.6209962   -3.2659127 
O     0.1505772    0.9347324   -1.7095127 
N     0.1064869    1.4221994   -5.4524428 
H    -1.3210047    1.8387849   -3.9537826 
H     0.8920436    0.7633346   -5.6569888 
H    -0.6139240    1.3031726   -6.2030999 
N     1.5755578    2.2752811   -3.1439797 
C     2.9058125    1.7929813   -2.7309430 
H     1.3832918    3.2071954   -3.5750063 
C     3.8867101    2.9480802   -2.5450265 
O     4.6100313    3.0450792   -1.3633439 
O     4.1332601    3.8769210   -3.5594100 
H     3.5528043    3.7155432   -4.3675603 
C     3.4156837    0.7612737   -3.7627261 
H     2.8182212    1.3079172   -1.7287311 
C     4.6952955    0.0944693   -3.3059460 
H     3.5483825    1.2408433   -4.7557372 
H     2.6459140   -0.0261716   -3.9072361 
C     5.9540181    0.4452112   -3.6193467 
C     6.4101821    1.4435763   -4.4192663 
C     7.7578737    1.5936364   -4.5647269 
C     8.6207733    0.7539020   -3.9168310 
C     8.1408565   -0.2399865   -3.1168972 
C     6.8034937   -0.3683973   -2.9889006 
H     5.7322037    2.1221936   -4.9260272 
H     8.1473016    2.3918815   -5.1921067 
H     9.6936807    0.8844562   -4.0336146 
H     8.8115067   -0.9097135   -2.5895520 
N     6.1053644   -1.3210084   -2.1996095 
C     4.7464598   -0.9449680   -2.4545367 
H     6.4856317   -2.0898360   -1.6016139 
H     3.8828063   -1.4192282   -1.9967565 
