48
Energy =
C     3.5935166   -4.5205361    2.5835677 
C     3.5168777   -3.1689995    2.4908232 
C     2.6548042   -5.3007378    1.9847812 
C     1.6392930   -4.7223554    1.3048530 
C     1.5580220   -3.3714732    1.2078145 
C     2.4989943   -2.5860204    1.8004634 
H     4.2841126   -2.5591165    2.9608966 
H     0.8951697   -5.3570188    0.8358247 
H     0.7380462   -2.9271716    0.6489117 
H     4.4122946   -4.9754790    3.1304965 
C     2.4509268   -1.0859819    1.6237924 
C     3.0556925   -0.6860278    0.2503528 
H     2.9798783   -0.5636252    2.4566767 
H     1.3900999   -0.7452408    1.7100648 
C     2.6037162    0.6651586   -0.2334790 
O     2.7135824   -6.6962455    2.0454381 
H     3.4859727   -7.0533436    2.5977660 
O     2.0497299    1.5734117    0.6530868 
N     4.5337328   -0.7470532    0.3131141 
H     2.6373937   -1.3497958   -0.5583437 
H     4.9054068   -0.1141576    1.0679261 
H     4.8631828   -1.7197309    0.5269663 
N     2.4366870    0.8874971   -1.6357257 
C     3.6463732    0.9005340   -2.4862173 
H     1.4666724    0.9344913   -2.0260923 
C     3.9435292    2.3109894   -2.9953564 
O     4.2860471    2.5136449   -4.3277157 
O     3.9605976    3.4073434   -2.1344621 
H     3.6603554    3.1586827   -1.2019766 
C     3.4620097   -0.1112888   -3.6459190 
H     4.5568188    0.6198351   -1.9070451 
C     3.2527653   -1.5213783   -3.1457172 
H     4.3497214   -0.0939874   -4.3171025 
H     2.5932420    0.1903837   -4.2755769 
C     4.1943020   -2.3639525   -2.6898964 
C     5.5409749   -2.2104716   -2.6228217 
C     6.2781517   -3.2045998   -2.0487726 
C     5.6638877   -4.3195942   -1.5477181 
C     4.3087970   -4.4490872   -1.6207253 
C     3.6035724   -3.4580259   -2.2045676 
H     6.0271086   -1.3177493   -3.0055466 
H     7.3593136   -3.1061721   -1.9835033 
H     6.2577437   -5.1049098   -1.0862481 
H     3.8048408   -5.3217093   -1.2170580 
N     2.1916497   -3.3704782   -2.3336338 
C     2.0488345   -2.0879618   -2.9497547 
H     1.4478878   -4.0293040   -2.0071253 
H     1.0927734   -1.6148238   -3.1378919 
