48
Energy =
C     6.2288918   -3.0073619    0.7844776 
C     5.6125488   -2.0250740   -0.2041775 
C     5.4960066   -3.9383893    1.4451144 
C     4.1991173   -4.1595546    1.1317241 
C     3.5414032   -3.5844497   -0.0855715 
C     4.2092951   -2.2184960   -0.2641805 
H     5.9538619   -0.9651956   -0.2450494 
H     3.6521844   -4.8785564    1.7340506 
H     2.4807414   -3.4853485    0.1082905 
H     7.2761762   -2.8798722    1.0322520 
C     3.2041963   -1.0324006   -0.4840177 
C     3.1000045    0.3642106    0.1392470 
H     2.1881075   -1.4075086   -0.7317979 
H     3.6056260   -0.6459096   -1.3422425 
C     2.4932552    1.3262579   -0.9424657 
O     6.0600943   -4.6951534    2.4751539 
H     7.0267159   -4.4658743    2.6775959 
O     2.3969698    2.6851823   -0.6849687 
N     2.2726910    0.3068798    1.3506167 
H     4.1100554    0.7646995    0.3973100 
H     1.3131185   -0.0450994    1.1224930 
H     2.7015598   -0.3663935    2.0300968 
N     2.0663457    0.8190244   -2.2520584 
C     3.0626849    0.6460495   -3.3628509 
H     1.0632415    0.5494941   -2.3576549 
C     2.8655004    1.7217336   -4.4275530 
O     3.9549849    2.4847825   -4.8295871 
O     1.6434960    1.9031167   -5.0753122 
H     0.9310804    1.3006592   -4.6960674 
C     3.0179364   -0.8048476   -4.0287067 
H     4.0910533    0.8443508   -2.9855723 
C     3.7289881   -1.9447552   -3.2666557 
H     3.5044713   -0.7557436   -5.0308529 
H     1.9582203   -1.0695880   -4.2237913 
C     3.1488318   -3.0547203   -2.7477700 
C     1.9998449   -3.6670957   -3.0822087 
C     1.7006875   -4.8538522   -2.5036042 
C     2.5290067   -5.4306618   -1.5913773 
C     3.8186748   -4.7519856   -1.1125475 
C     4.0532728   -3.5945079   -1.6577888 
H     1.3496164   -3.2605499   -3.8502841 
H     0.7883635   -5.3711710   -2.7936027 
H     2.2559038   -6.3874066   -1.1529078 
H     4.7391087   -5.3757846   -1.0305133 
N     5.0625780   -2.6067957   -1.4726313 
C     4.9490682   -1.8022554   -2.6824613 
H     5.8996581   -3.2141359   -1.6439620 
H     5.5992569   -0.9502439   -2.8762758 
