48
Energy =
C    -3.1813512    3.1522745   -1.1805094 
C    -1.8837764    3.1456755   -0.7825547 
C    -4.1472172    2.6411977   -0.3708449 
C    -3.8068392    2.1270917    0.8329746 
C    -2.5110227    2.1184811    1.2359716 
C    -1.5412089    2.6309302    0.4301361 
H    -1.1211614    3.5568904   -1.4391619 
H    -4.5854909    1.7216350    1.4694402 
H    -2.2566562    1.6967254    2.2047300 
H    -3.4443441    3.5666285   -2.1476275 
C    -0.0928860    2.6092630    0.8643494 
C     0.7013028    1.4479347    0.2148930 
H    -0.0079384    2.5454715    1.9713686 
H     0.3789401    3.5806823    0.5896383 
C     2.2010442    1.5814069    0.4258691 
O    -5.4932443    2.6304523   -0.7517905 
H    -5.6659301    3.0401958   -1.6630347 
O     2.6836863    2.5805535    0.9792292 
N     0.2261437    0.1491768    0.7224136 
H     0.5691286    1.4859623   -0.8909133 
H     0.2677964    0.1455481    1.7691806 
H    -0.7740389    0.0071908    0.4478791 
N     3.0929069    0.6277801   -0.1707312 
C     4.3460574    1.1989269   -0.6936679 
H     2.8173935   -0.3783142   -0.2393841 
C     4.5269632    2.6276905   -0.1662882 
O     5.5219291    3.4550325   -0.6784592 
O     3.7717069    3.0567490    0.7186859 
H     3.5415663    2.4587930    1.4856510 
C     4.2988889    1.1351589   -2.2357997 
H     5.2012557    0.6052929   -0.3029316 
C     5.6819176    1.1900412   -2.8490399 
H     3.6665549    1.9643991   -2.6259866 
H     3.8018975    0.1952725   -2.5608646 
C     6.5278547    0.1595390   -3.0048145 
C     6.3712781   -1.1504251   -2.6827493 
C     7.4004115   -2.0079611   -2.9393249 
C     8.5580330   -1.5485067   -3.5042839 
C     8.6939983   -0.2280051   -3.8152077 
C     7.6607852    0.5999538   -3.5542017 
H     5.4555427   -1.5160229   -2.2275255 
H     7.3010687   -3.0618205   -2.6905013 
H     9.3748312   -2.2378859   -3.7029753 
H     9.6076864    0.1537396   -4.2581016 
N     7.6027619    2.0000765   -3.7850121 
C     6.2896955    2.3054324   -3.2916426 
H     8.3195723    2.6330596   -4.2085901 
H     5.8671265    3.3085148   -3.2321009 
