48
Energy =
C    -1.1965955    0.7544844   -7.5782426 
C    -0.8055536    0.7336618   -6.2788729 
C    -1.1934689   -0.3907786   -8.3114782 
C    -0.7971408   -1.5499125   -7.7383565 
C    -0.4046545   -1.5766929   -6.4395088 
C    -0.4102854   -0.4336879   -5.7001031 
H    -0.8073904    1.6581355   -5.7061105 
H    -0.7957558   -2.4556884   -8.3344496 
H    -0.0819125   -2.5168974   -6.0004079 
H    -1.5092169    1.6897193   -8.0297013 
C     0.0414922   -0.4508867   -4.2564183 
C     1.4697724    0.1126427   -4.0850997 
H    -0.0040627   -1.4806454   -3.8362639 
H    -0.6736751    0.1533279   -3.6542445 
C     1.7840501    0.3265536   -2.6149783 
O    -1.5901816   -0.4039966   -9.6529719 
H    -1.8688560    0.5040347  -10.0081559 
O     1.7815411   -0.7443245   -1.7250555 
N     2.4634391   -0.7790530   -4.7121004 
H     1.5296750    1.1229472   -4.5597582 
H     2.3591288   -1.7504619   -4.3297732 
H     2.2929358   -0.8266055   -5.7445163 
N     2.0454290    1.6470856   -2.1174965 
C     3.4759211    2.0691676   -2.0988586 
H     1.6545688    1.6704843   -1.1467025 
C     3.5974303    3.4571792   -2.7228825 
O     3.0959468    3.6762583   -4.0009192 
O     4.2742742    4.4986498   -2.0856338 
H     4.6368027    4.2343551   -1.1832160 
C     4.4498974    1.0746158   -2.7987222 
H     3.7991168    2.1556265   -1.0361844 
C     5.8973246    1.4845424   -2.6262592 
H     4.1971896    0.9849372   -3.8798597 
H     4.3307459    0.0541337   -2.3690793 
C     6.6390286    2.2271903   -3.4656545 
C     6.3185081    2.7707682   -4.6684772 
C     7.2667371    3.4993059   -5.3240151 
C     8.5075128    3.6715898   -4.7760127 
C     8.8072841    3.1175939   -3.5671931 
C     7.8522744    2.4014465   -2.9374794 
H     5.3325602    2.6463456   -5.1066190 
H     7.0305888    3.9510592   -6.2848473 
H     9.2558805    4.2574188   -5.3041633 
H     9.7852827    3.2490777   -3.1166287 
N     7.9563930    1.7557359   -1.6761336 
C     6.6456534    1.1909443   -1.5478092 
H     8.7709035    1.7091900   -1.0212631 
H     6.3070430    0.6125925   -0.6905183 
