48
Energy =
C    -0.9010921    2.2373942   -1.2922355 
C    -0.2335282    2.3280323   -0.1142832 
C    -0.8102747    3.2384515   -2.2077197 
C    -0.0571041    4.3268043   -1.9350788 
C     0.6044401    4.4277065   -0.7544713 
C     0.5213837    3.4270978    0.1648915 
H    -0.2982576    1.5084924    0.5978873 
H     0.0105162    5.1118467   -2.6792772 
H     1.2130621    5.3053236   -0.5549098 
H    -1.4979156    1.3565614   -1.5036326 
C     1.2915662    3.5166170    1.4680052 
C     2.7955991    3.1934161    1.3162606 
H     0.8513722    2.8225109    2.2201470 
H     1.1722675    4.5361153    1.8950399 
C     3.0317508    1.7926214    0.7561295 
O    -1.4720748    3.1706320   -3.4381009 
H    -2.0373716    2.3359327   -3.5555612 
O     3.1613478    0.7358866    1.6498486 
N     3.4519953    4.2405808    0.5142667 
H     3.2463720    3.1737585    2.3389467 
H     3.4250371    5.1444131    1.0427537 
H     4.4736828    4.0129854    0.4231378 
N     2.8939295    1.4964008   -0.6459032 
C     4.1140280    0.8437311   -1.1792962 
H     2.7085414    2.3917269   -1.1459439 
C     5.3404220    1.7561368   -1.2599564 
O     6.5532469    1.2766645   -0.7892128 
O     5.3186758    3.0322599   -1.8230768 
H     4.4216375    3.2675132   -2.2123984 
C     3.7909835    0.1510971   -2.5237390 
H     4.4298039    0.0281413   -0.4811278 
C     3.1982336    1.0819070   -3.5597030 
H     3.0647234   -0.6693728   -2.3275327 
H     4.7036083   -0.3420396   -2.9257258 
C     3.8556819    1.7808368   -4.4982419 
C     5.1841357    1.8368722   -4.7726375 
C     5.6035602    2.6524611   -5.7821555 
C     4.6997612    3.3917002   -6.4943561 
C     3.3707976    3.3228092   -6.1978851 
C     2.9809006    2.5085532   -5.1950202 
H     5.9068548    1.2662969   -4.1953114 
H     6.6635293    2.7207909   -6.0147719 
H     5.0429661    4.0416258   -7.2950485 
H     2.6410066    3.9074400   -6.7472570 
N     1.6594318    2.3103911   -4.7144780 
C     1.8892978    1.3682828   -3.6600167 
H     0.7574578    2.7310325   -5.0395680 
H     1.1134810    0.9579360   -3.0177438 
