48
Energy =
C    -3.8753728   -0.8337887    1.3756350 
C    -2.9386534   -1.0322427    0.4141859 
C    -3.5239277   -0.8636191    2.6888866 
C    -2.2353265   -1.0907677    3.0309201 
C    -1.2939636   -1.2891885    2.0736336 
C    -1.6415837   -1.2651431    0.7577973 
H    -3.2345002   -0.9991197   -0.6310797 
H    -1.9680524   -1.1102449    4.0818512 
H    -0.2628480   -1.4678095    2.3683526 
H    -4.9055964   -0.6494872    1.0911417 
C    -0.5887051   -1.4693396   -0.3089308 
C     0.2340498   -0.1844355   -0.5694123 
H    -1.0506570   -1.8209158   -1.2577616 
H     0.0890471   -2.2924102    0.0157798 
C     1.4411791   -0.4782151   -1.4439734 
O    -4.4644280   -0.6631122    3.7044853 
H    -5.4063822   -0.4973993    3.3671556 
O     2.2727610   -1.5422444   -1.1128593 
N    -0.6200116    0.8621002   -1.1617991 
H     0.6637898    0.1833376    0.3919058 
H    -1.1510048    0.4797852   -1.9801837 
H    -1.3235489    1.1858394   -0.4557966 
N     1.9409193    0.5145274   -2.3456335 
C     3.1835382    1.2102693   -1.9614699 
H     1.4045348    0.7315514   -3.2162139 
C     3.0739652    2.7240388   -2.1276987 
O     4.2219150    3.4700977   -2.3681522 
O     1.8765070    3.4096802   -1.9284012 
H     1.1187367    2.7895033   -1.6786085 
C     4.3644064    0.5999166   -2.7522695 
H     3.3917463    1.0725391   -0.8748610 
C     4.1666297    0.6738108   -4.2536390 
H     4.4958814   -0.4596275   -2.4420681 
H     5.3122052    1.1161955   -2.4788371 
C     3.5982848   -0.2563539   -5.0395228 
C     3.0847105   -1.4731273   -4.7211607 
C     2.5500586   -2.2331542   -5.7192033 
C     2.5354605   -1.7720859   -7.0064079 
C     3.0549281   -0.5470607   -7.3029020 
C     3.5793450    0.1856686   -6.2982728 
H     3.0887973   -1.8412913   -3.6991824 
H     2.1326774   -3.2102820   -5.4881068 
H     2.1069437   -2.3838097   -7.7962797 
H     3.0488506   -0.1645652   -8.3178788 
N     4.1558838    1.4800369   -6.3919677 
C     4.5061739    1.7246233   -5.0223554 
H     4.2915417    2.0877508   -7.2324954 
H     4.9662653    2.6427306   -4.6579802 
