48
Energy =
C     0.0198300    4.4654549    1.6987550 
C    -0.1858318    3.1835372    1.3027758 
C     1.1529431    4.7997629    2.3721870 
C     2.0752516    3.8481218    2.6418598 
C     1.8746649    2.5651271    2.2487948 
C     0.7380362    2.2232016    1.5816642 
H    -1.0935847    2.9317671    0.7602390 
H     2.9783950    4.1274122    3.1735631 
H     2.6328716    1.8165198    2.4669335 
H    -0.7227050    5.2231981    1.4744727 
C     0.5194895    0.7991683    1.1172299 
C     0.9428123    0.6084859   -0.3561775 
H    -0.5548389    0.5392468    1.2363049 
H     1.0843857    0.0882471    1.7622533 
C     2.4361347    0.8404104   -0.5528084 
O     1.3938957    6.1104436    2.7967427 
H     0.6664224    6.7693822    2.5421702 
O     3.3421275    0.2916958    0.3547744 
N     0.5566116   -0.7336699   -0.8191108 
H     0.4088440    1.3625188   -0.9783882 
H     1.0596820   -1.4556563   -0.2467122 
H    -0.4708017   -0.8784425   -0.6793704 
N     2.9166385    1.4379969   -1.7713395 
C     4.3544073    1.3375771   -2.0944711 
H     2.2528580    1.9492086   -2.3971565 
C     4.9024063    2.6934702   -2.5239069 
O     5.5434307    2.8387435   -3.7491773 
O     4.8117616    3.8030693   -1.6851276 
H     4.2962557    3.5886232   -0.8427597 
C     4.5418595    0.2535688   -3.1777456 
H     4.9649133    1.0716084   -1.2004465 
C     4.2446576   -1.1267511   -2.6357890 
H     5.5810708    0.2749484   -3.5751968 
H     3.8763440    0.4759399   -4.0415422 
C     5.0898120   -1.9248545   -1.9651763 
C     6.3928699   -1.7314378   -1.6351461 
C     7.0339920   -2.7071590   -0.9297750 
C     6.3702722   -3.8463380   -0.5661811 
C     5.0605328   -4.0161683   -0.9047491 
C     4.4489512   -3.0379349   -1.6048178 
H     6.9200787   -0.8245887   -1.9157455 
H     8.0769844   -2.5763984   -0.6513830 
H     6.8872105   -4.6175439   -0.0008020 
H     4.5175756   -4.9102893   -0.6185427 
N     3.0972391   -3.0102428   -2.0404430 
C     3.0446677   -1.7306940   -2.6879697 
H     2.3472354   -3.7290610   -1.9236335 
H     2.1423198   -1.2833168   -3.1020960 
