48
Energy =
C    -0.5858389    6.2815024   -5.4897345 
C    -0.3607005    5.4440074   -4.4457559 
C     0.4296293    6.6133091   -6.3318104 
C     1.6648765    6.1032234   -6.1227604 
C     1.8955471    5.2659408   -5.0808124 
C     0.8832243    4.9341929   -4.2328244 
H    -1.1829596    5.1811812   -3.7840575 
H     2.4678567    6.3719594   -6.8004447 
H     2.8965445    4.8650162   -4.9317076 
H    -1.5803330    6.6833924   -5.6506108 
C     1.1367696    3.9852215   -3.0841360 
C     1.0686825    2.5092285   -3.5281359 
H     0.4048489    4.1499233   -2.2615388 
H     2.1351179    4.2127783   -2.6447647 
C     1.7329025    1.6137351   -2.4934941 
O     0.2299175    7.4723497   -7.4175927 
H    -0.7205387    7.8152417   -7.5027933 
O     1.4843358    1.8029762   -1.1385049 
N    -0.3395464    2.1333752   -3.7341144 
H     1.6468202    2.3748341   -4.4771455 
H    -0.6943391    2.5985561   -4.6024378 
H    -0.4018560    1.1036203   -3.9152244 
N     2.8537378    0.8096384   -2.8752053 
C     4.1820507    1.3616484   -2.5590443 
H     2.6853859   -0.1231901   -3.3144358 
C     4.4524680    2.6212580   -3.3773097 
O     4.3391118    2.5803539   -4.7612891 
O     4.7555621    3.8421397   -2.7751501 
H     4.9075351    3.7518725   -1.7813981 
C     5.2499902    0.2783438   -2.8092716 
H     4.2001346    1.6344526   -1.4785761 
C     6.6054895    0.6986071   -2.2825201 
H     5.3057953    0.0403788   -3.8948299 
H     4.9437437   -0.6605517   -2.2962155 
C     7.5842293    1.3221810   -2.9593911 
C     7.6407367    1.7036708   -4.2616080 
C     8.7642002    2.3377892   -4.7034107 
C     9.8036682    2.5784210   -3.8483713 
C     9.7251654    2.1876539   -2.5448188 
C     8.6031287    1.5619531   -2.1311952 
H     6.8155187    1.5229014   -4.9439921 
H     8.8291229    2.6589215   -5.7403776 
H    10.6938219    3.0880416   -4.2086113 
H    10.5388455    2.3756343   -1.8526048 
N     8.3181719    1.0891103   -0.8219228 
C     7.0029527    0.5499112   -1.0062160 
H     8.9097880    1.1267214    0.0398916 
H     6.4072654    0.0977243   -0.2162247 
