48
Energy =
C    -3.9092251    2.8548190    0.4066627 
C    -2.5677215    2.9633845    0.2320324 
C    -4.4376162    1.7312906    0.9614341 
C    -3.6184875    0.7229689    1.3373260 
C    -2.2762817    0.8260230    1.1652698 
C    -1.7420670    1.9506533    0.6148761 
H    -2.1598758    3.8659046   -0.2170590 
H    -4.0524290   -0.1687418    1.7761516 
H    -1.6365806    0.0016215    1.4680636 
H    -4.5582302    3.6679166    0.0997811 
C    -0.2493540    2.0652661    0.4004139 
C     0.1485531    1.7453697   -1.0589767 
H     0.2991393    1.4005441    1.1031912 
H     0.0695731    3.1026365    0.6556239 
C     1.5926075    2.1355130   -1.3280304 
O    -5.8154378    1.5866116    1.1539496 
H    -6.3595763    2.3863632    0.8494016 
O     1.8384715    3.3818778   -1.8881818 
N    -0.1025922    0.3262319   -1.3748265 
H    -0.4511158    2.3870670   -1.7500622 
H     0.2333075   -0.2941233   -0.6017133 
H    -1.1356166    0.1697915   -1.4616645 
N     2.6761481    1.3278099   -0.8265058 
C     4.0793414    1.5599045   -1.2369262 
H     2.4522535    0.5915394   -0.1221070 
C     4.5739562    3.0095310   -1.1061555 
O     5.0495873    3.4332455    0.1305763 
O     4.6484249    3.9028182   -2.1728130 
H     3.9976937    3.6468670   -2.8954473 
C     4.4357747    0.7981171   -2.5439242 
H     4.7061867    1.0558356   -0.4662473 
C     3.5745036    1.1058168   -3.7539039 
H     4.3417887   -0.2927836   -2.3433863 
H     5.5092520    0.9571207   -2.7809272 
C     3.9219975    1.8131872   -4.8443495 
C     5.0762013    2.4726017   -5.1288040 
C     5.1763475    3.1214076   -6.3242951 
C     4.1372752    3.0978107   -7.2123497 
C     2.9910457    2.4256452   -6.9095822 
C     2.9141577    1.7951312   -5.7189015 
H     5.9012419    2.5047995   -4.4238121 
H     6.0862263    3.6634377   -6.5702435 
H     4.2245890    3.6176526   -8.1628489 
H     2.1580153    2.3943896   -7.6032737 
N     1.8245012    1.0339807   -5.2228112 
C     2.3388144    0.6131494   -3.9534941 
H     0.9007692    0.8259361   -5.6648188 
H     1.8084297   -0.0377338   -3.2621881 
