48
Energy =
C     3.8857239    5.9045048    2.6392915 
C     3.9548294    4.6210869    2.2047851 
C     3.4168615    6.1797430    3.8856093 
C     3.0198196    5.1669001    4.6893029 
C     3.0868235    3.8811026    4.2602568 
C     3.5584053    3.5998399    3.0146282 
H     4.3308019    4.4181363    1.2033488 
H     2.6466068    5.4000609    5.6806375 
H     2.7590182    3.0810887    4.9188901 
H     4.2060744    6.7088063    1.9855210 
C     3.6209775    2.1714415    2.5222332 
C     2.4323586    1.8258793    1.5904520 
H     3.6530388    1.4567564    3.3745514 
H     4.5881979    2.0287518    1.9844909 
C     2.7086040    0.5540670    0.8084837 
O     3.3308703    7.4908938    4.3640716 
H     3.6520312    8.1914061    3.7042989 
O     3.0152818   -0.6246654    1.4801855 
N     1.1860050    1.6993280    2.3615912 
H     2.3049498    2.6346326    0.8315127 
H     1.3027781    0.9747890    3.1104593 
H     0.9597572    2.6083851    2.8282638 
N     2.9151421    0.6167670   -0.6072327 
C     4.2986292    0.8530119   -1.0558834 
H     2.0988686    0.4712166   -1.2410588 
C     4.6882986    2.3140371   -0.8919229 
O     5.8446566    2.6344261   -0.1939600 
O     3.9000723    3.3515441   -1.3865577 
H     3.0894277    2.9970809   -1.8715691 
C     4.4685463    0.3959513   -2.5174761 
H     4.9999405    0.2646944   -0.4190291 
C     4.2876779   -1.0995303   -2.6541540 
H     5.4835002    0.6714860   -2.8824535 
H     3.7410262    0.9278441   -3.1691756 
C     5.1690414   -2.0498864   -2.3055763 
C     6.4162585   -1.9307811   -1.7826278 
C     7.1154482   -3.0694633   -1.5086446 
C     6.5639944   -4.2959266   -1.7592240 
C     5.3096433   -4.3905975   -2.2855526 
C     4.6385923   -3.2494732   -2.5483022 
H     6.8545708   -0.9575223   -1.5804612 
H     8.1148859   -3.0005448   -1.0856373 
H     7.1263539   -5.1992097   -1.5350441 
H     4.8556616   -5.3550873   -2.4873491 
N     3.3302896   -3.1272539   -3.0885874 
C     3.1786627   -1.7015296   -3.1191375 
H     2.6636865   -3.8753970   -3.3892123 
H     2.2830084   -1.1861899   -3.4577215 
