48
 energy: -9.117713001625 gnorm: 0.000631429421 xtb: 6.6.0 (2ccbbd7)
C            2.20510051676504        2.64674767864804        2.39443426991697
C            1.03000444251375        2.54831415984218        1.65190673080838
C            3.47213537492273        2.53455912495541        1.77899079350361
C            3.54240309772133        2.33395815948472        0.42887064736827
C            2.33754594881982        2.22033970778095       -0.43832030415343
C            1.03897939491334        2.34558293745582        0.30925367462477
H            0.08250229216253        2.63036937111916        2.15629017399776
H            4.51737349085354        2.25673522153827       -0.01373288805827
H            2.34632964137197        3.29955570849257       -1.15624256877492
H            2.15749730986712        2.80642622267904        3.45618464547795
C           -0.24381848151801        2.20728749545787       -0.45500590175842
C           -0.07987715003764        1.41859367703109       -1.76877230722777
H           -0.66039138429798        3.20041461602139       -0.65462919759598
H           -0.98168397140048        1.69307608445485        0.16789983411346
C            1.05079342859747        0.42617643058343       -1.66168638210693
O            4.63820638716477        2.62244666049973        2.51773608465615
H            4.42543253158041        2.77571959524735        3.46365539270112
O            0.85394126314788       -0.73888143236587       -1.85414059917730
N           -1.30099319435541        0.72333074285736       -2.13826292694642
H            0.16181904602315        2.12199876372645       -2.58250902134208
H           -1.13034914160948        0.20496859409933       -2.99013348240447
H           -1.48137968107149        0.02326992880501       -1.43218835180747
N            2.36478624293734        0.91777230231887       -1.28680323528748
C            3.35389329708777        1.03168462783943       -2.44055656701277
H            2.82061132913205        0.23783791106943       -0.64036327735311
C            3.03989033405842        2.22199176452280       -3.32103111220785
O            1.93513755614958        2.71529043307046       -3.27947874300009
O            4.05145766817223        2.66005206833686       -4.11543815380861
H            4.86419832171162        2.12198385027297       -3.98936241341385
C            3.40347936846559       -0.25540942227788       -3.25981905618997
H            4.34956878570923        1.20567997567225       -2.01123231100555
C            3.97936780635345       -1.40100986980338       -2.49931236155565
H            3.97841231209979       -0.09923175511540       -4.17803558069164
H            2.38786168707067       -0.50709106940619       -3.58166227224586
C            5.34687881518673       -1.80235063631620       -2.45358477029395
C            6.50499881172282       -1.32728926008732       -3.09227973868204
C            7.69692002604278       -1.94341282370485       -2.82834867674944
C            7.77450948539624       -3.02778744910945       -1.93898609625860
C            6.66043510025596       -3.50544831123058       -1.30475475464943
C            5.42873834991663       -2.88969943517051       -1.56080831735340
H            6.44127414611303       -0.49711042349803       -3.77292760010853
H            8.59438210185141       -1.59286919577919       -3.31043097170545
H            8.72990877080122       -3.49026721803512       -1.75411901529874
H            6.71160945861625       -4.33403586183093       -0.62144690844358
N            4.15420707792680       -3.12889259649997       -1.07543250163935
C            3.29370044435471       -2.22316868657276       -1.64247805784208
H            3.91276149933980       -3.85477218062667       -0.39833762085226
H            2.24013255864897       -2.14014710435950       -1.43200205093874
