48
Energy =
C     2.7041543    5.2705827    2.9670605 
C     3.1907137    4.1646995    2.3498506 
C     2.2978337    5.2068564    4.2630910 
C     2.3817809    4.0349853    4.9331963 
C     2.8678116    2.9254105    4.3212000 
C     3.2785303    2.9844616    3.0246633 
H     3.5100349    4.2325278    1.3110429 
H     2.0536602    3.9976727    5.9663377 
H     2.9238726    1.9921700    4.8753214 
H     2.6409146    6.2049282    2.4193410 
C     3.8057015    1.7493381    2.3293772 
C     2.7383089    1.0984903    1.4139534 
H     4.1779814    1.0039227    3.0669399 
H     4.7016295    2.0417927    1.7317302 
C     3.3773851    0.1144172    0.4500876 
O     1.7895380    6.3267572    4.9285188 
H     1.7661759    7.1670265    4.3605198 
O     4.1307276   -0.9487858    0.9355368 
N     1.6982361    0.4359448    2.2163955 
H     2.2590937    1.8845247    0.7824340 
H     2.1367883   -0.2747404    2.8507510 
H     1.2064464    1.1394791    2.8151810 
N     3.4010063    0.3971573   -0.9535489 
C     4.5476329    1.1835522   -1.4434215 
H     2.6380023    0.0155475   -1.5532815 
C     4.3933475    2.6540599   -1.0897724 
O     5.4071531    3.2944193   -0.3911155 
O     3.2401293    3.3731829   -1.3980924 
H     2.5764787    2.8033175   -1.9006286 
C     4.7171884    0.9938228   -2.9637300 
H     5.4825689    0.8359650   -0.9418552 
C     5.0844905   -0.4344722   -3.3053468 
H     5.5334684    1.6595904   -3.3263375 
H     3.7973014    1.3095569   -3.4982150 
C     4.2789132   -1.3898691   -3.7996827 
C     2.9664160   -1.3358512   -4.1475167 
C     2.3751227   -2.4671909   -4.6285913 
C     3.0949557   -3.6227892   -4.7546501 
C     4.4109940   -3.6540871   -4.4013573 
C     4.9739420   -2.5223099   -3.9288614 
H     2.3899745   -0.4220246   -4.0508225 
H     1.3253889   -2.4506723   -4.9125691 
H     2.6163118   -4.5212010   -5.1369853 
H     4.9964700   -4.5628305   -4.4931813 
N     6.3184225   -2.3467187   -3.5066145 
C     6.3041383   -0.9683900   -3.1140127 
H     7.1073633   -3.0334394   -3.4930029 
H     7.1588391   -0.4387307   -2.6984343 
