48
Energy =
C     3.4601446    2.6551467    2.3639386 
C     2.3706454    2.4346411    1.5861207 
C     4.4745365    1.7500882    2.3915805 
C     4.3875766    0.6270762    1.6429099 
C     3.3000450    0.4027569    0.8631898 
C     2.2882649    1.3101286    0.8218633 
H     1.5637055    3.1630229    1.5797832 
H     5.1987703   -0.0922148    1.6787554 
H     3.2463886   -0.5091396    0.2793766 
H     3.5178626    3.5553647    2.9653530 
C     1.0760150    1.0665086   -0.0503438 
C     0.9533929    2.0796158   -1.2204728 
H     0.1784793    1.1336497    0.6031593 
H     1.0697354    0.0308176   -0.4540202 
C     1.9180864    1.7941748   -2.3794711 
O     5.6142178    1.9475870    3.1792300 
H     5.6082848    2.8101767    3.7127752 
O     1.4518547    1.8596375   -3.6889388 
N    -0.4471132    2.1110261   -1.6742931 
H     1.2189626    3.1030943   -0.8737840 
H    -0.7409040    1.1583231   -1.9914531 
H    -1.0778129    2.4098174   -0.8949251 
N     3.3382974    1.8110061   -2.1591457 
C     4.2777006    1.0236049   -2.9962259 
H     3.6833647    2.2610374   -1.2846604 
C     5.0748418    1.9481929   -3.9166772 
O     5.0589265    1.7548708   -5.2945988 
O     5.8953069    2.9521041   -3.3983713 
H     5.8254794    3.0169837   -2.3948911 
C     3.6249386   -0.1455044   -3.7884443 
H     5.0365645    0.5734264   -2.3200093 
C     2.9466798   -1.1702988   -2.9047227 
H     4.4231190   -0.6764237   -4.3537642 
H     2.9513788    0.2622785   -4.5710504 
C     1.6457758   -1.5181893   -2.8927870 
C     0.6021559   -1.0573733   -3.6321200 
C    -0.6364859   -1.5855294   -3.4099457 
C    -0.8124694   -2.5611244   -2.4696040 
C     0.2484853   -3.0177033   -1.7473703 
C     1.4627217   -2.4786634   -1.9825408 
H     0.7303406   -0.2801695   -4.3805610 
H    -1.4894907   -1.2266099   -3.9828657 
H    -1.8026367   -2.9779779   -2.2987504 
H     0.1263964   -3.7965022   -1.0012447 
N     2.6852871   -2.8217915   -1.3480847 
C     3.5961667   -1.9374366   -2.0112679 
H     2.8685561   -3.5269616   -0.5963867 
H     4.6664233   -1.9030051   -1.8181142 
