48
Energy =
C     1.6154579    7.4782172    2.7731426 
C     1.1216768    6.7497094    1.7399902 
C     2.3983755    6.8864006    3.7145656 
C     2.6824984    5.5680616    3.6145760 
C     2.1919275    4.8346905    2.5835724 
C     1.4051780    5.4215578    1.6406356 
H     0.5002858    7.2391414    0.9943349 
H     3.3088390    5.1082504    4.3710220 
H     2.4332842    3.7769684    2.5201668 
H     1.3832303    8.5354147    2.8440658 
C     0.8717990    4.6071168    0.4833942 
C     1.9486078    4.3461496   -0.5972383 
H    -0.0110579    5.1048036    0.0203562 
H     0.4950228    3.6364988    0.8778104 
C     1.4462593    3.3442483   -1.6229849 
O     2.9234114    7.6082228    4.7914461 
H     2.6647920    8.5888407    4.7945929 
O     0.3077333    3.6450261   -2.3627445 
N     2.3442737    5.5990830   -1.2575873 
H     2.8491726    3.8964627   -0.1216948 
H     1.5081752    6.0538962   -1.6969877 
H     2.7526763    6.2643923   -0.5614194 
N     1.8430356    1.9696246   -1.5420726 
C     3.2292205    1.5911826   -1.8969356 
H     1.1130189    1.2723276   -1.2721180 
C     3.9262570    2.5069509   -2.9174680 
O     3.2116114    3.0842180   -3.9584800 
O     5.3024305    2.7313015   -2.8581645 
H     5.7459921    2.2233190   -2.1086634 
C     3.2673414    0.1104730   -2.3389901 
H     3.8297474    1.6624645   -0.9641080 
C     2.5085521   -0.2345973   -3.6160601 
H     2.8647288   -0.5204262   -1.5165497 
H     4.3327886   -0.1811945   -2.4761387 
C     2.5984041   -1.4092755   -4.2634712 
C     3.3604884   -2.4984327   -3.9807728 
C     3.2674550   -3.5860322   -4.7985113 
C     2.4218314   -3.5719362   -5.8727252 
C     1.6629914   -2.4704188   -6.1347100 
C     1.7744161   -1.4065574   -5.3120001 
H     4.0311086   -2.5146251   -3.1269758 
H     3.8687911   -4.4687848   -4.5952581 
H     2.3531914   -4.4424794   -6.5201241 
H     0.9847689   -2.4435559   -6.9808728 
N     1.0696802   -0.1794543   -5.3995936 
C     1.5943437    0.5222240   -4.2624779 
H     0.3519666    0.1290435   -6.0951684 
H     1.2839654    1.5275612   -3.9817114 
