48
Energy =
C     1.5716664    4.6646548    3.6467557 
C     1.3550550    4.0965107    2.4335762 
C     1.6085747    3.8932389    4.7659349 
C     1.4283985    2.5568134    4.6628929 
C     1.2117933    1.9831009    3.4522304 
C     1.1698308    2.7513724    2.3294536 
H     1.3334384    4.7258719    1.5477764 
H     1.4610921    1.9527888    5.5631551 
H     1.0721360    0.9066158    3.3887256 
H     1.7169796    5.7370451    3.7192061 
C     0.9496037    2.1080312    0.9785593 
C     2.2442221    1.4697720    0.4230774 
H     0.5435661    2.8442528    0.2500304 
H     0.1619594    1.3247339    1.0792737 
C     1.9378784    0.6085820   -0.7964190 
O     1.8315970    4.4464919    6.0308421 
H     1.9510808    5.4536735    6.0260337 
O     1.1415239   -0.5141245   -0.6113614 
N     3.2596122    2.5050351    0.1470116 
H     2.6446713    0.7437447    1.1716686 
H     2.8193316    3.3340783   -0.3194946 
H     3.6517909    2.8502463    1.0558404 
N     2.1387801    1.0769550   -2.1397443 
C     3.5552057    0.9511432   -2.5664050 
H     1.8075292    2.0683462   -2.1703401 
C     3.9147310    2.0211920   -3.5962821 
O     3.7041458    1.7864402   -4.9496235 
O     4.4319384    3.2578235   -3.2072182 
H     4.5164713    3.3473647   -2.2054416 
C     3.7862787   -0.4717065   -3.1398995 
H     4.2610792    1.1276655   -1.7214239 
C     4.1766247   -1.4630185   -2.0665491 
H     4.5853137   -0.4683540   -3.9160564 
H     2.8627085   -0.8096731   -3.6644294 
C     5.3827900   -1.5795937   -1.4899053 
C     6.5260137   -0.8831321   -1.7180610 
C     7.6311452   -1.1938762   -0.9813830 
C     7.5771694   -2.1834732   -0.0386414 
C     6.4173149   -2.8685937    0.1729196 
C     5.3383805   -2.5434913   -0.5694885 
H     6.5706035   -0.0970059   -2.4668453 
H     8.5600418   -0.6521812   -1.1449730 
H     8.4623521   -2.4252399    0.5445825 
H     6.3566097   -3.6552459    0.9173464 
N     4.0430881   -3.1219301   -0.5030736 
C     3.3500535   -2.3615949   -1.5044844 
H     3.6897263   -3.8946815    0.1068588 
H     2.2912835   -2.4683490   -1.7446221 
