48
 energy: -9.293420763292 gnorm: 0.000402750776 xtb: 6.6.0 (2ccbbd7)
C            4.28747127415558       -2.54482809944426       -2.87157642409847
C            3.77892981070686       -2.45884710019189       -1.59678280684970
C            3.47393563841388       -2.30336575719108       -3.97938533061890
C            2.13757702240503       -1.97311370561642       -3.75812053907782
C            1.63850430257061       -1.88116693268620       -2.48124889421744
C            2.44837937355341       -2.12614331508468       -1.38141782788233
H            4.42194227846454       -2.61994781786172       -0.74851347499116
H            1.51184791438928       -1.77915690995218       -4.61070010614361
H            0.61498654943446       -1.58767337373061       -2.32110762289166
H            5.32357264301781       -2.78613444252558       -3.02705522289938
C            1.92368473268672       -1.91773552957306        0.00578624588949
C            2.12105479973326       -0.48612058808235        0.51576121295042
H            2.40059760516618       -2.62148402584384        0.69500603501346
H            0.85543398998650       -2.15206725843177        0.03117175088541
C            1.37314702998519        0.50281437874678       -0.34885691905126
O            3.95641050811145       -2.37250977397703       -5.27256444577644
H            4.91935137470080       -2.56133514049249       -5.25818789383432
O            0.17958918925696        0.60545134938227       -0.15441531456053
N            1.63241542600293       -0.34362576750469        1.87707265224170
H            3.19638706556512       -0.25197502759906        0.51201449866369
H            1.85581705525200        0.58212653228325        2.21950706947578
H            0.62028075029118       -0.38118418193111        1.82048666957788
N            2.02991283199630        1.23031085414321       -1.31616831091859
C            3.42948820736953        1.00913592116855       -1.68414916890314
H            1.49195890024725        1.83307640896227       -1.93549468456697
C            4.34128139777427        1.54232585167378       -0.59894125537168
O            5.34068960147793        0.91003871657266       -0.33396054002855
O            3.96091610554539        2.70007762976511       -0.00967078203019
H            3.08720732609156        2.99273841234576       -0.35880523546860
C            3.77201157018546        1.57372199692921       -3.06672696314733
H            3.57358753167678       -0.07601885607642       -1.72922038916395
C            4.98842822249355        0.95985297864334       -3.68238944181663
H            3.89937001321812        2.65769968370593       -2.99593601013349
H            2.92185431420981        1.40850074145101       -3.73570880638327
C            5.17015925267474        0.65120272110780       -5.06358365849156
C            4.34133065429191        0.78525397046781       -6.19071400227100
C            4.80866919725691        0.35708400494562       -7.40234583967183
C            6.08970399949322       -0.20364705929164       -7.53175621204907
C            6.91443020775407       -0.34303544967167       -6.44949919667293
C            6.45356346976918        0.08532810860432       -5.19851859108235
H            3.35702422333592        1.20572715685538       -6.08758185907408
H            4.18190430695931        0.44481827084250       -8.27422582007834
H            6.42571547901966       -0.53190877634934       -8.50138217243082
H            7.89595672261731       -0.77286469116806       -6.53855041290850
N            7.03052106461024        0.05563311707609       -3.94167371270537
C            6.14264878582090        0.58503857338450       -3.04094492121200
H            7.96890114647346       -0.29125419968154       -3.73470496114753
H            6.31019727285251        0.64846665403340       -1.97876346503743
