48
Energy =
C     7.1087205   -1.4166305    0.3751203 
C     5.9659363   -1.2663645    1.0911097 
C     7.7566008   -0.3265287   -0.1161194 
C     7.2574506    0.9086140    0.1179064 
C     6.1148738    1.0646611    0.8357382 
C     5.4570654   -0.0250762    1.3197190 
H     5.4598818   -2.1485275    1.4737241 
H     7.7760819    1.7696103   -0.2915226 
H     5.7201028    2.0664137    0.9960771 
H     7.4997959   -2.4123645    0.1936355 
C     4.1593588    0.1414605    2.0811938 
C     2.8988854    0.0654347    1.1824695 
H     4.1651872    1.1226581    2.6098665 
H     4.0940864   -0.6245968    2.8841854 
C     2.8825208    1.1485108    0.1130857 
O     8.9305914   -0.4509533   -0.8659950 
H     9.2423068   -1.4087651   -0.9786790 
O     2.8480939    2.4829630    0.4965451 
N     2.7232570   -1.2879088    0.6238527 
H     2.0130639    0.2946918    1.8187317 
H     3.4832782   -1.4940203   -0.0686659 
H     2.7877081   -2.0045002    1.3830172 
N     2.7401948    0.8225239   -1.2767236 
C     4.0238886    0.9530819   -2.0060090 
H     1.9855977    1.4217534   -1.6760539 
C     4.5263880    2.3837214   -2.2268006 
O     5.8891292    2.5661068   -2.4187088 
O     3.6921087    3.4886158   -2.3854211 
H     2.8410953    3.4071199   -1.8560226 
C     3.9154727    0.1938833   -3.3419671 
H     4.8379139    0.4605935   -1.4281283 
C     3.8511722   -1.2973224   -3.0973034 
H     4.8086571    0.4073103   -3.9756010 
H     3.0322675    0.5426737   -3.9187354 
C     2.7503745   -2.0453741   -2.9148392 
C     1.4396921   -1.6952708   -2.9577709 
C     0.5029195   -2.6554902   -2.7092439 
C     0.8865380   -3.9360939   -2.4205899 
C     2.2092729   -4.2631604   -2.3764506 
C     3.1158064   -3.2963463   -2.6294367 
H     1.1342959   -0.6775832   -3.1746416 
H    -0.5534828   -2.3998517   -2.7351807 
H     0.1347283   -4.6954437   -2.2200664 
H     2.5324645   -5.2714898   -2.1410929 
N     4.5306745   -3.4197695   -2.6041232 
C     4.9303229   -2.0770505   -2.9076584 
H     5.1198428   -4.2613675   -2.4050931 
H     5.9647092   -1.7341097   -2.9389583 
