48
Energy =
C     1.7289081    3.3291104   -3.8834603 
C     0.8472680    2.5504538   -3.2071541 
C     1.9269252    4.6208036   -3.5083152 
C     1.2404140    5.1247547   -2.4580479 
C     0.3552921    4.3518539   -1.7807042 
C     0.1552275    3.0559875   -2.1483936 
H     0.7032414    1.5165935   -3.5160628 
H     1.4078459    6.1559919   -2.1674381 
H    -0.1902904    4.7782203   -0.9432690 
H     2.2739671    2.9159239   -4.7254830 
C    -0.8247888    2.1817935   -1.3915569 
C    -0.2139672    1.5003847   -0.1419687 
H    -1.2169003    1.3900280   -2.0702514 
H    -1.7125594    2.7820760   -1.0951490 
C     1.0343398    0.6890706   -0.4656877 
O     2.8269979    5.4498413   -4.1843498 
H     3.2999261    5.0029883   -4.9623669 
O     0.9163211   -0.3136213   -1.4216779 
N     0.0042228    2.4791586    0.9386299 
H    -0.9458882    0.7442820    0.2246294 
H     0.7687946    3.1477775    0.6896539 
H    -0.8660868    3.0333898    1.1164203 
N     2.0782322    0.5790825    0.5148109 
C     3.4960882    0.6577036    0.0549138 
H     1.8864907   -0.2714630    1.0862702 
C     4.1436964    1.8898502    0.6807285 
O     5.1961985    1.7296867    1.5736200 
O     3.7435533    3.1834073    0.3406847 
H     2.9541365    3.1714783   -0.2855117 
C     3.7167631    0.6711105   -1.4913328 
H     4.0799202   -0.1870811    0.4794734 
C     3.8077545   -0.6415018   -2.2736501 
H     4.6898998    1.1817728   -1.6796108 
H     2.9735154    1.3243984   -1.9864379 
C     3.5391546   -1.9343270   -1.9503884 
C     3.0904098   -2.5090585   -0.7999044 
C     2.9116603   -3.8600643   -0.7596740 
C     3.1775195   -4.6250014   -1.8563139 
C     3.6211013   -4.0436518   -3.0019067 
C     3.7904735   -2.7050405   -3.0196190 
H     2.8562401   -1.9441362    0.0786391 
H     2.5491876   -4.3303337    0.1514176 
H     3.0300495   -5.7013877   -1.8162878 
H     3.8336791   -4.6371044   -3.8847750 
N     4.2398445   -1.9359907   -4.1203461 
C     4.2166108   -0.6236769   -3.5589107 
H     4.5146855   -2.2491333   -5.0799495 
H     4.5001056    0.2723633   -4.1068738 
