48
Energy =
C    -0.9931067    3.8734895   -6.3195744 
C    -0.4309958    3.1850426   -5.2942719 
C    -1.6118460    5.0620119   -6.0870101 
C    -1.6615754    5.5547273   -4.8284635 
C    -1.1001371    4.8712865   -3.7990433 
C    -0.4850945    3.6790196   -4.0260449 
H     0.0669361    2.2395521   -5.4981190 
H    -2.1556461    6.5048818   -4.6572913 
H    -1.1475310    5.2853112   -2.7950507 
H    -0.9446622    3.4720023   -7.3259940 
C     0.1592115    2.9262020   -2.8850865 
C     1.5414987    3.5118018   -2.4905020 
H     0.2679262    1.8480869   -3.1439586 
H    -0.5231402    2.9576582   -2.0039530 
C     2.0765208    2.8004468   -1.2739142 
O    -2.2019017    5.7960980   -7.1208480 
H    -2.1190497    5.3615921   -8.0333176 
O     1.5103135    3.0633619   -0.0330299 
N     2.4984893    3.4128668   -3.6098373 
H     1.4409979    4.5788635   -2.1807213 
H     2.4681535    2.4361556   -3.9892681 
H     2.1160399    3.9771616   -4.4066768 
N     2.7936486    1.5788597   -1.4529656 
C     4.1967030    1.6565327   -1.9090186 
H     2.2719965    0.6822211   -1.3427088 
C     4.6071046    2.9455320   -2.6692687 
O     3.7100063    3.8405597   -3.3220154 
O     5.9609845    3.2916444   -2.7205757 
H     6.5476856    2.6565889   -2.2013429 
C     4.5834587    0.3642921   -2.6727630 
H     4.8162634    1.6719013   -0.9858826 
C     3.7932581    0.1615462   -3.9470085 
H     4.4199914   -0.5112736   -2.0057619 
H     5.6704245    0.3652287   -2.9046382 
C     4.0902187    0.6314251   -5.1710026 
C     5.1502761    1.3690506   -5.5905491 
C     5.1985068    1.7502075   -6.8992610 
C     4.1981579    1.3931996   -7.7603240 
C     3.1422160    0.6541956   -7.3167428 
C     3.1181431    0.2884217   -6.0182945 
H     5.9408681    1.6664507   -4.9090274 
H     6.0336964    2.3480071   -7.2564110 
H     4.2426577    1.7041106   -8.8009826 
H     2.3370705    0.3668707   -7.9838298 
N     2.1040576   -0.4523270   -5.3555534 
C     2.6185193   -0.4891114   -4.0189147 
H     1.2143857   -0.8471966   -5.7385457 
H     2.1199289   -0.9763369   -3.1846183 
