48
Energy =
C     2.8414367   -4.8065667    2.8444999 
C     2.5083497   -3.7876808    2.0172259 
C     3.0787823   -4.5706998    4.1621505 
C     2.9776037   -3.3109733    4.6424175 
C     2.6454022   -2.2849869    3.8195168 
C     2.4170362   -2.5125117    2.4957583 
H     2.3040582   -4.0196243    0.9759771 
H     3.1668160   -3.1339793    5.6931908 
H     2.5656680   -1.2810866    4.2221505 
H     2.9114656   -5.8089407    2.4413029 
C     2.0506622   -1.3594090    1.5762507 
C     3.2621659   -0.5983846    0.9950318 
H     1.3983648   -0.6408040    2.1081710 
H     1.4501186   -1.7510764    0.7260875 
C     2.7910805    0.5227759    0.0502271 
O     3.4206582   -5.6047097    5.0463444 
H     3.5019388   -6.5051967    4.5882780 
O     2.0596938    1.6090288    0.5408101 
N     4.1223364   -0.0513290    2.0316680 
H     3.9049227   -1.3479179    0.4786699 
H     3.5353686    0.3710389    2.7801924 
H     4.6483366   -0.8661922    2.4134419 
N     2.9136442    0.3781872   -1.3727057 
C     4.2897194    0.3396827   -1.9088997 
H     2.0556433    0.4118819   -1.9649024 
C     4.9555024    1.7149254   -1.9412331 
O     6.3464206    1.7887616   -1.9341524 
O     4.2373777    2.9046481   -2.0998626 
H     3.2473500    2.7360416   -1.9912641 
C     4.2723185   -0.2867914   -3.3223451 
H     4.9428885   -0.2847027   -1.2496761 
C     3.8425174   -1.7343108   -3.3994063 
H     5.2988164   -0.2371142   -3.7422307 
H     3.6034277    0.3151851   -3.9731929 
C     3.7317859   -2.4481921   -4.5385128 
C     3.9501118   -2.0713183   -5.8268852 
C     3.7664700   -2.9955190   -6.8147837 
C     3.3723363   -4.2683945   -6.5035728 
C     3.1602206   -4.6224761   -5.2026172 
C     3.3482549   -3.6899113   -4.2447806 
H     4.2619399   -1.0595795   -6.0633150 
H     3.9343951   -2.7166822   -7.8512313 
H     3.2272888   -5.0010167   -7.2920072 
H     2.8487292   -5.6225261   -4.9277928 
N     3.1865757   -3.8515776   -2.8394548 
C     3.5318674   -2.5277829   -2.3572250 
H     2.8937776   -4.7141826   -2.3143008 
H     3.4992906   -2.1659316   -1.2491521 
