48
Energy =
C     0.2865991    1.1706889   -6.3693828 
C    -0.3879900    1.3041759   -5.2002181 
C     1.1488960    2.1391981   -6.7750603 
C     1.3248681    3.2401040   -6.0095132 
C     0.6435218    3.3841105   -4.8447757 
C    -0.2158281    2.4149528   -4.4308457 
H    -1.0634941    0.5147916   -4.8818140 
H     2.0230482    4.0025344   -6.3360051 
H     0.8037075    4.2741585   -4.2411068 
H     0.1457557    0.2821281   -6.9732222 
C    -0.9524022    2.5487919   -3.1155946 
C    -0.2770153    1.7202220   -1.9975748 
H    -1.9992288    2.2041347   -3.2640450 
H    -1.0257042    3.6170790   -2.8074146 
C     1.0203122    2.3672250   -1.4988544 
O     1.8721416    2.0218776   -7.9676358 
H     1.6431910    1.1964239   -8.5103611 
O     0.9382557    3.6667956   -1.0004492 
N    -1.2199060    1.5233181   -0.8853183 
H    -0.0201074    0.7180542   -2.4108180 
H    -1.5234267    2.4547665   -0.5094980 
H    -2.0748532    1.0220484   -1.2226149 
N     2.1005837    1.5272536   -1.0330431 
C     3.4848718    2.0647383   -1.1999730 
H     1.9949848    0.5857797   -1.4627846 
C     3.6310240    3.4476876   -1.8665840 
O     3.0792648    3.6851409   -3.1186763 
O     4.4266817    4.4499249   -1.3059463 
H     4.7405381    4.2259724   -0.3739520 
C     4.4290873    1.0108491   -1.8482685 
H     3.8651259    2.2040658   -0.1658510 
C     4.0537369    0.6405728   -3.2747525 
H     4.4520297    0.1021655   -1.2095168 
H     5.4724758    1.3997337   -1.8448197 
C     3.3836420   -0.4523862   -3.6861431 
C     2.8907426   -1.4999606   -2.9730099 
C     2.2341518   -2.4903769   -3.6422186 
C     2.0859713   -2.4262992   -4.9995188 
C     2.5963144   -1.3730969   -5.6965413 
C     3.2401843   -0.4049683   -5.0123412 
H     3.0092559   -1.5631623   -1.8963008 
H     1.8295479   -3.3373490   -3.0935946 
H     1.5639189   -3.2207754   -5.5263302 
H     2.4909549   -1.3089074   -6.7743902 
N     3.8346276    0.7656003   -5.5476256 
C     4.3516436    1.3793903   -4.3599728 
H     3.9125376    1.0670079   -6.5488746 
H     4.8817380    2.3309846   -4.3412356 
