48
Energy =
C     2.4856414   -3.0595348   -2.2277637 
C     1.9566354   -2.1990072   -1.3223040 
C     2.0984838   -3.0041908   -3.5300189 
C     1.1797611   -2.0891294   -3.9156950 
C     0.6471130   -1.2261784   -3.0134969 
C     1.0335357   -1.2767316   -1.7104073 
H     2.2802616   -2.2494299   -0.2864334 
H     0.8789758   -2.0534749   -4.9571258 
H    -0.0812287   -0.4899817   -3.3457236 
H     3.2214840   -3.7892927   -1.9089402 
C     0.4846623   -0.2834229   -0.7115200 
C     1.4725688    0.8818066   -0.4793178 
H     0.2818637   -0.8115942    0.2461075 
H    -0.4973209    0.1170338   -1.0539970 
C     1.6298873    1.7535710   -1.7200170 
O     2.6318790   -3.8711997   -4.4899161 
H     3.2978804   -4.5388355   -4.1180331 
O     0.5985863    2.6085194   -2.0939962 
N     1.0399261    1.6819312    0.6762911 
H     2.4773314    0.4644515   -0.2541455 
H     0.0816068    2.0698517    0.4952638 
H     0.9707642    1.0746547    1.5262568 
N     2.6446893    1.4532570   -2.6871239 
C     4.0443272    1.7593089   -2.3483550 
H     2.3614052    1.0006668   -3.5865413 
C     4.6470661    2.7374975   -3.3573234 
O     4.3964298    2.5663866   -4.7143256 
O     5.5339188    3.7428416   -2.9647225 
H     5.7065704    3.7407552   -1.9703201 
C     4.8252029    0.4308807   -2.3196628 
H     4.1020145    2.2431428   -1.3454129 
C     6.2372781    0.6237525   -1.8146223 
H     4.8424777   -0.0170730   -3.3408069 
H     4.2993871   -0.3079786   -1.6781712 
C     6.6310821    0.6820931   -0.5329694 
C     5.9055526    0.5528361    0.6074291 
C     6.5516093    0.6703602    1.8030105 
C     7.8965952    0.9156292    1.8401154 
C     8.6035949    1.0458313    0.6816177 
C     7.9423081    0.9222650   -0.4881516 
H     4.8378541    0.3631146    0.5804009 
H     5.9945656    0.5715250    2.7318623 
H     8.4043116    1.0108952    2.7968727 
H     9.6695949    1.2469735    0.6931777 
N     8.4811012    1.0431713   -1.7965736 
C     7.3081839    0.8443448   -2.5975714 
H     9.4672902    1.2248422   -2.0942977 
H     7.2846286    0.9069077   -3.6851435 
