48
Energy =
C     1.8314846    5.6610337   -6.8358991 
C     2.0135830    4.8274601   -5.7797580 
C     0.5760622    5.9550526   -7.2666437 
C    -0.4906574    5.4131680   -6.6366879 
C    -0.3161198    4.5790577   -5.5803871 
C     0.9386985    4.2811519   -5.1438156 
H     3.0285994    4.6063671   -5.4471941 
H    -1.4866756    5.6563185   -6.9909934 
H    -1.1884063    4.1523251   -5.0914014 
H     2.6931701    6.0920021   -7.3352983 
C     1.1381388    3.3389500   -3.9765019 
C     1.4317289    1.8866683   -4.4376225 
H     0.2488021    3.3475614   -3.3074764 
H     1.9779111    3.7232729   -3.3498976 
C     1.9304719    1.0450881   -3.2760492 
O     0.3547681    6.8082113   -8.3518792 
H     1.2040707    7.1750377   -8.7677474 
O     1.2240127    1.0292568   -2.0777503 
N     0.2344374    1.2759075   -5.0476746 
H     2.2709898    1.8885139   -5.1784781 
H    -0.5725840    1.3122220   -4.3778848 
H    -0.0396644    1.7974692   -5.9135913 
N     3.2428384    0.4726814   -3.3149136 
C     4.2985859    1.1905126   -2.5758274 
H     3.3881543   -0.4258592   -3.8272972 
C     4.4565881    2.6207538   -3.0878215 
O     4.3793597    2.8808326   -4.4505475 
O     4.5991428    3.7029666   -2.2261542 
H     4.7671167    3.4066051   -1.2759044 
C     5.6164609    0.3996871   -2.6912710 
H     4.0024365    1.2411912   -1.5028256 
C     6.6905212    0.9624994   -1.7860039 
H     5.9622774    0.3936090   -3.7489275 
H     5.4341531   -0.6612058   -2.4102494 
C     7.6006920    1.9017240   -2.0924912 
C     7.8155318    2.5621681   -3.2595766 
C     8.8139856    3.4899029   -3.3050993 
C     9.5745271    3.7418204   -2.1969639 
C     9.3387892    3.0692112   -1.0348559 
C     8.3452481    2.1559019   -1.0147709 
H     7.2043106    2.3757693   -4.1384039 
H     8.9991197    4.0367616   -4.2263191 
H    10.3655615    4.4858976   -2.2412007 
H     9.9283159    3.2617826   -0.1451701 
N     7.9298681    1.3640561    0.0895167 
C     6.8500113    0.6247459   -0.4942890 
H     8.3095098    1.3323093    1.0632218 
H     6.2410059   -0.0986604    0.0421937 
