48
 energy: -9.361188311010 gnorm: 0.000889582459 xtb: 6.6.0 (2ccbbd7)
C            3.02925861035330        5.59945569111019        3.11084506702133
C            2.95449773336332        4.71259205260564        2.06323847817229
C            4.13799379506285        5.60603584492368        3.95832748363910
C            5.16090175503578        4.68972157293821        3.71411086327137
C            5.07937793977546        3.80638486733242        2.66472049857318
C            3.97785912312987        3.80844485068323        1.82190986754336
H            2.09310727847281        4.71315559043434        1.41683403765774
H            6.01514925094218        4.69580764382783        4.36759913209581
H            5.87720946385150        3.10626315544528        2.48556906695863
H            2.23194618707690        6.29919945840831        3.28750391145618
C            3.87260742992849        2.83753272509268        0.69295485863361
C            2.97229513755363        1.63401313477830        1.02141794621987
H            4.87372265852970        2.50307251584622        0.41413515427117
H            3.43059484170835        3.43001320791993       -0.26975791411493
C            2.18759571451861        1.14875727936611       -0.17738948589817
O            4.24630870091643        6.48496927106913        5.01867247295582
H            3.45852249877439        7.06934729590426        5.05435268499864
O            0.98592855611164        1.00681042442895       -0.05601939541972
N            3.68084045039882        0.53455322175822        1.66742800035408
H            2.21444784324269        1.97521835250726        1.74645759821791
H            4.17093429793149       -0.03718248867423        0.99274090264522
H            4.35065317611540        0.88188344072577        2.34271868846688
N            2.81470557596804        0.89775799413578       -1.37587316474670
C            4.24788497296788        1.04035206334334       -1.64635068640049
H            2.24859650908205        0.63622573883719       -2.17855599481969
C            4.62116466739975        2.47838830911453       -1.90680492395215
O            5.63275965372874        2.71982012620101       -2.52786443868958
O            3.76326872174613        3.50271957017053       -1.34074294813622
H            2.74837515638128        3.19640104762939       -1.11879076851911
C            4.67747483055267        0.13352492129798       -2.79767327636728
H            4.79118152893117        0.71343192927310       -0.75247692364060
C            4.47370879043998       -1.30421442437907       -2.46491796224869
H            5.73039662890247        0.31756324740583       -3.03552769914344
H            4.11535913424993        0.39786432896046       -3.69743553129291
C            3.30818851963715       -2.08397563914891       -2.73063856129251
C            2.12098427972290       -1.82516212081428       -3.43809768419923
C            1.16030882667276       -2.79695206874363       -3.48542093871387
C            1.34479725081436       -4.03399964509491       -2.84700319324037
C            2.49274452510677       -4.30994841376110       -2.15622344435812
C            3.48866218727279       -3.32728223204849       -2.09384094627074
H            1.98281202685246       -0.88026992296677       -3.93249420517057
H            0.24293621034189       -2.61111695518957       -4.01907677774441
H            0.56585879779094       -4.77645498935610       -2.90146762847791
H            2.64083787789917       -5.25256132800902       -1.66058707154630
N            4.72067451904867       -3.29801810660699       -1.46480353841657
C            5.30115994858058       -2.07380071391400       -1.68455520138557
H            5.10019849462708       -4.05548591148977       -0.89377567287892
H            6.24930356825357       -1.75891152822699       -1.27895375831795
