48
Energy =
C     2.8224130    5.1247238    1.8501704 
C     3.3640911    3.9560829    1.4240763 
C     2.3245540    5.2275275    3.1112758 
C     2.3726569    4.1583283    3.9382415 
C     2.9135187    2.9867662    3.5177690 
C     3.4159608    2.8793385    2.2571079 
H     3.7566992    3.8902850    0.4107604 
H     1.9714057    4.2534007    4.9414559 
H     2.9396053    2.1378833    4.1959431 
H     2.7887296    5.9755680    1.1779744 
C     4.0055353    1.5729367    1.7746040 
C     3.0148289    0.7829249    0.8827586 
H     4.3301821    0.9412436    2.6313014 
H     4.9401265    1.7998602    1.2085038 
C     3.7320248   -0.3131767    0.1146210 
O     1.7577020    6.4161774    3.5815265 
H     1.7657453    7.1718384    2.9047428 
O     4.4531332   -1.2864709    0.7974599 
N     1.9230551    0.2183528    1.6913328 
H     2.5777378    1.4651105    0.1149009 
H     2.3183196   -0.3898817    2.4487254 
H     1.3814383    0.9881371    2.1489871 
N     3.8677279   -0.2226772   -1.3085069 
C     5.0393918    0.5169222   -1.8097165 
H     3.1590144   -0.6962629   -1.9124482 
C     4.8273131    2.0208085   -1.6945977 
O     5.7563856    2.7903370   -1.0083804 
O     3.6914289    2.6479295   -2.2048812 
H     3.0773619    1.9823067   -2.6494233 
C     5.3328682    0.0785223   -3.2574357 
H     5.9286781    0.2645812   -1.1829825 
C     6.6695345    0.6009760   -3.7393355 
H     4.5182364    0.4019488   -3.9398854 
H     5.3522606   -1.0338358   -3.2962929 
C     6.9051098    1.7483992   -4.3969272 
C     6.0407329    2.7070020   -4.8191743 
C     6.5454031    3.7959385   -5.4668796 
C     7.8909957    3.9099593   -5.6818393 
C     8.7405219    2.9360315   -5.2480993 
C     8.2170570    1.8683165   -4.6096964 
H     4.9732393    2.6268833   -4.6413000 
H     5.8737148    4.5807847   -5.8060270 
H     8.2855278    4.7837145   -6.1941494 
H     9.8109653    3.0138081   -5.4040966 
N     8.9236757    0.7589576   -4.0728738 
C     7.8476888   -0.0094392   -3.5197584 
H     9.9493534    0.5565070   -4.0855513 
H     7.9750808   -0.9443130   -2.9784873 
