48
Energy =
C     1.5596134   -1.5203258    2.2699056 
C     0.9691235   -1.0058673    1.1618802 
C     2.5829796   -2.4077416    2.1493899 
C     3.0095236   -2.7718672    0.9186247 
C     2.4228744   -2.2599907   -0.1930126 
C     1.3936778   -1.3774303   -0.0768990 
H     0.1580477   -0.2914909    1.2728807 
H     3.8293029   -3.4761762    0.8355869 
H     2.7876586   -2.5595034   -1.1712303 
H     1.2133390   -1.2176175    3.2517264 
C     0.7542105   -0.7823942   -1.3116154 
C     1.2874927    0.6387748   -1.6044192 
H    -0.3468609   -0.7394660   -1.1619368 
H     0.9167084   -1.4437868   -2.1896867 
C     2.7995402    0.6730549   -1.7773125 
O     3.2127755   -2.9583635    3.2716015 
H     2.8427073   -2.6236294    4.1540826 
O     3.4891074    1.3321907   -0.9837936 
N     0.6041654    1.1956795   -2.7795612 
H     1.0659767    1.2918208   -0.7264896 
H     0.7295260    0.5587882   -3.5998230 
H    -0.4217342    1.2645047   -2.5878493 
N     3.4514712   -0.0381639   -2.8501726 
C     4.7510618    0.5246406   -3.2650079 
H     3.0108923   -0.8738377   -3.2913243 
C     5.1789419    1.6362189   -2.3087816 
O     6.2438795    2.4736797   -2.6290433 
O     4.5962411    1.7721192   -1.2250022 
H     4.3712759    0.9498709   -0.7017874 
C     4.7021489    0.9735665   -4.7500549 
H     5.5320308   -0.2589166   -3.1577619 
C     3.3670002    1.5530745   -5.1777311 
H     4.9228117    0.0879407   -5.3853995 
H     5.5113669    1.7053906   -4.9700406 
C     2.8840850    2.7819016   -4.9258516 
C     3.4454795    3.8260331   -4.2642603 
C     2.7285207    4.9798640   -4.1419838 
C     1.4771118    5.0762787   -4.6835431 
C     0.9363057    4.0199716   -5.3534907 
C     1.6641653    2.8884386   -5.4588007 
H     4.4402843    3.7616178   -3.8403145 
H     3.1551652    5.8257823   -3.6076503 
H     0.9111966    5.9985874   -4.5790766 
H    -0.0542954    4.0800942   -5.7908407 
N     1.2868188    1.6872525   -6.1169847 
C     2.4429732    0.8746456   -5.8831353 
H     0.4029912    1.4612032   -6.6280826 
H     2.5478859   -0.1515363   -6.2253996 
