48
Energy =
C    -1.0097558    0.0900314   -6.6311917 
C    -1.2963591    0.1161116   -5.3048333 
C    -0.0467297    0.9055655   -7.1389063 
C     0.6235012    1.7419341   -6.3138269 
C     0.3371002    1.7748580   -4.9885093 
C    -0.6282746    0.9640463   -4.4751720 
H    -2.0583927   -0.5498816   -4.9100563 
H     1.3986133    2.3807471   -6.7237595 
H     0.8971763    2.4450362   -4.3416495 
H    -1.5481559   -0.5887678   -7.2833562 
C    -0.9185016    0.9686117   -2.9888174 
C    -0.1649802   -0.1639478   -2.2544368 
H    -2.0119905    0.8518757   -2.8255348 
H    -0.6402866    1.9525210   -2.5493514 
C     1.3465456   -0.0609567   -2.4266208 
O     0.2718463    0.9022835   -8.5012507 
H    -0.2640109    0.2374860   -9.0475620 
O     1.9442621   -0.9852842   -3.2776270 
N    -0.5510455   -0.1830429   -0.8313461 
H    -0.4470891   -1.1403690   -2.7166776 
H    -0.5379066    0.7845477   -0.4308108 
H    -1.5367228   -0.5283771   -0.7487705 
N     2.0274035    1.1470763   -1.9976882 
C     3.5132872    1.3031832   -2.0561394 
H     1.7149883    1.3094070   -1.0140742 
C     3.8525776    2.6169722   -2.7602443 
O     3.5019378    2.7925006   -4.0938445 
O     4.5474605    3.6444908   -2.1183066 
H     4.7769669    3.4257920   -1.1617995 
C     4.2999898    0.1283533   -2.6888262 
H     3.8866889    1.3919999   -1.0107220 
C     5.7987160    0.3147406   -2.5631662 
H     4.0148718    0.0120849   -3.7593801 
H     4.0337282   -0.8197902   -2.1722211 
C     6.6350819    0.8390299   -3.4758854 
C     6.3853850    1.3033710   -4.7279951 
C     7.4272848    1.7968742   -5.4565758 
C     8.6894193    1.8179334   -4.9314454 
C     8.9174750    1.3467198   -3.6730302 
C     7.8705442    0.8641097   -2.9712526 
H     5.3852170    1.2967301   -5.1512800 
H     7.2504560    2.1807365   -6.4589389 
H     9.5134402    2.2160681   -5.5184189 
H     9.9122665    1.3598281   -3.2407151 
N     7.8927596    0.3379522   -1.6518234 
C     6.5109669    0.0100006   -1.4634280 
H     8.7016746    0.2243890   -0.9985022 
H     6.1013745   -0.4202553   -0.5520525 
