48
Energy =
C     2.7101295   -3.7592784   -0.3229847 
C     2.4402456   -2.6436954    0.4008376 
C     1.7048721   -4.4293989   -0.9462332 
C     0.4355245   -3.9759716   -0.8428268 
C     0.1592733   -2.8647708   -0.1148003 
C     1.1614975   -2.1898670    0.5134437 
H     3.2545513   -2.1198436    0.8960081 
H    -0.3575510   -4.5183007   -1.3452761 
H    -0.8685387   -2.5210812   -0.0377899 
H     3.7323693   -4.1113067   -0.4054332 
C     0.8521541   -0.9566854    1.3408608 
C     0.9425274    0.3767810    0.5518895 
H     1.5468993   -0.9103228    2.2109053 
H    -0.1635570   -1.0476466    1.7837970 
C     2.3587318    0.7272004    0.1014611 
O     1.9497102   -5.5814632   -1.7018542 
H     2.9158178   -5.8878866   -1.6804884 
O     3.4133871    0.3166916    0.9147944 
N    -0.0169443    0.3886294   -0.5675687 
H     0.6787292    1.2011508    1.2551194 
H     0.2360630   -0.3600549   -1.2554078 
H    -0.9773535    0.1719263   -0.2115206 
N     2.5674697    1.9065542   -0.6974514 
C     3.8249621    1.8412419   -1.4870112 
H     1.7305306    2.0378086   -1.3086853 
C     4.6647953    3.0888713   -1.2229229 
O     4.9763412    3.9615058   -2.2617353 
O     5.1730258    3.3572972    0.0472432 
H     4.8256900    2.6882784    0.7240345 
C     3.5318376    1.6464713   -2.9989498 
H     4.4844005    1.0071993   -1.1539329 
C     2.8776500    0.3159353   -3.2939571 
H     4.4772612    1.7171979   -3.5822158 
H     2.8917559    2.4816735   -3.3649098 
C     3.4709375   -0.8877560   -3.3068807 
C     4.7653870   -1.2219349   -3.0720397 
C     5.1259308   -2.5343047   -3.1773290 
C     4.1976332   -3.4788989   -3.5185885 
C     2.9034429   -3.1182819   -3.7505993 
C     2.5704204   -1.8165235   -3.6302500 
H     5.5014505   -0.4662112   -2.8136394 
H     6.1570364   -2.8311166   -2.9963682 
H     4.4891086   -4.5225992   -3.6071970 
H     2.1541330   -3.8564980   -4.0191527 
N     1.2940062   -1.2325083   -3.8451514 
C     1.5824157    0.1524479   -3.6129278 
H     0.3907302   -1.6938833   -4.0998298 
H     0.8496658    0.9532742   -3.6875811 
