48
Energy =
C     2.6858826    5.7549738   -5.8863968 
C     2.6594969    5.1996363   -4.6476481 
C     1.5260529    5.9913975   -6.5548198 
C     0.3455403    5.6721212   -5.9781753 
C     0.3118110    5.1169164   -4.7402784 
C     1.4701260    4.8765381   -4.0656145 
H     3.6002494    5.0234582   -4.1265833 
H    -0.5724318    5.8670575   -6.5223120 
H    -0.6489331    4.8652921   -4.2977048 
H     3.6376996    6.0101230   -6.3410015 
C     1.4344423    4.2402164   -2.6920794 
C     1.6456778    2.7042903   -2.7422236 
H     0.4720312    4.4695727   -2.1816649 
H     2.2260134    4.7085705   -2.0542908 
C     1.7981244    2.1544359   -1.3328111 
O     1.5192245    6.5589453   -7.8324419 
H     2.4423359    6.7770807   -8.1918439 
O     0.8287751    2.4388579   -0.3778305 
N     0.5354210    2.0333847   -3.4473441 
H     2.6056707    2.4833468   -3.2644311 
H    -0.3792078    2.2862418   -2.9987306 
H     0.4988683    2.3406366   -4.4478741 
N     2.8173953    1.1983492   -1.0062687 
C     4.2469512    1.5830062   -1.0684260 
H     2.5115339    0.2143011   -0.8383461 
C     4.4593901    3.0895601   -1.2226029 
O     4.6414718    3.6355896   -2.4864288 
O     4.2934154    3.9636105   -0.1556855 
H     4.0416312    3.4762228    0.6927041 
C     4.9528443    0.7918242   -2.1932555 
H     4.7277993    1.3123709   -0.1021421 
C     4.9227782   -0.7010801   -1.9538325 
H     6.0148385    1.1214241   -2.2606654 
H     4.5056594    1.0347465   -3.1792591 
C     4.0261146   -1.5800960   -2.4311142 
C     2.9506348   -1.3801856   -3.2370652 
C     2.1800886   -2.4556139   -3.5680972 
C     2.4909559   -3.7002163   -3.0943373 
C     3.5734157   -3.8765941   -2.2843986 
C     4.3209091   -2.7973552   -1.9716079 
H     2.6943122   -0.3921437   -3.6070437 
H     1.3117978   -2.3214123   -4.2090923 
H     1.8706545   -4.5521739   -3.3612922 
H     3.8308307   -4.8560036   -1.8957304 
N     5.4693602   -2.7612230   -1.1361559 
C     5.7931394   -1.3652722   -1.1740103 
H     5.9462706   -3.5422157   -0.6299542 
H     6.6244791   -0.9117598   -0.6389651 
