48
Energy =
C     1.7149670   -5.0316015    1.8587317 
C     1.6430687   -3.6789209    1.7795191 
C     1.1332267   -5.8041803    0.9028415 
C     0.4825460   -5.2165304   -0.1268553 
C     0.4076720   -3.8640932   -0.2115354 
C     0.9858005   -3.0864270    0.7442626 
H     2.1179662   -3.0758230    2.5489849 
H     0.0229860   -5.8442845   -0.8824420 
H    -0.1184686   -3.4103771   -1.0474500 
H     2.2402720   -5.4933599    2.6876864 
C     0.9188165   -1.5787889    0.6392358 
C     1.9400074   -1.0122131   -0.3788183 
H     1.0754227   -1.1030810    1.6336360 
H    -0.1122543   -1.2884105    0.3338403 
C     1.7264513    0.4760644   -0.6309936 
O     1.1908072   -7.2007232    0.9531896 
H     1.6881351   -7.5638446    1.7590472 
O     0.8083943    1.1935696    0.1267285 
N     3.3191070   -1.2719393    0.0720533 
H     1.7741538   -1.5059691   -1.3640982 
H     3.4422590   -0.9332690    1.0568319 
H     3.5013314   -2.3031759    0.0702141 
N     2.2536534    1.0909094   -1.8124137 
C     3.7130152    1.3004472   -1.8752807 
H     1.5894268    1.3378770   -2.5789254 
C     4.0606997    2.7472140   -2.2118641 
O     4.9218759    3.4484786   -1.3770562 
O     3.5838336    3.3784029   -3.3629662 
H     2.9676433    2.7794898   -3.8881645 
C     4.3103775    0.3001081   -2.8871158 
H     4.1736954    1.1233053   -0.8723120 
C     5.8164576    0.2215123   -2.7660861 
H     4.0125753    0.5589638   -3.9256242 
H     3.8916472   -0.7115460   -2.6888448 
C     6.7271809    0.9342269   -3.4491528 
C     6.5569742    1.8646305   -4.4235142 
C     7.6642679    2.4578445   -4.9544578 
C     8.9115472    2.1162721   -4.5100339 
C     9.0588098    1.1800440   -3.5301068 
C     7.9480158    0.6071546   -3.0206370 
H     5.5690963    2.1459302   -4.7738324 
H     7.5525007    3.2120026   -5.7298724 
H     9.7885324    2.5978825   -4.9351363 
H    10.0402736    0.9023209   -3.1614570 
N     7.8820201   -0.3715445   -1.9927360 
C     6.4650598   -0.5593245   -1.8842090 
H     8.6584445   -0.8309682   -1.4641331 
H     5.9838058   -1.2249916   -1.1705772 
