48
 energy: -9.291670321921 gnorm: 0.000898224132 xtb: 6.6.0 (2ccbbd7)
C           -0.00994229759181       -2.74319978988857        3.07837914117056
C           -0.26172550739188       -1.82414829916857        2.08699342546903
C            1.14188097489170       -3.52941076147221        3.04336449568751
C            2.03003998644453       -3.35072984411291        1.98379152253410
C            1.76874515293455       -2.43212637362917        0.99617727605940
C            0.61832188981698       -1.65835848265454        1.02700343621242
H           -1.15150825347525       -1.21994204539351        2.12836445027740
H            2.92872338340379       -3.94089380550034        1.96598815767200
H            2.47931665990494       -2.27781673849649        0.20235012135385
H           -0.70023301308495       -2.86421212966680        3.89374207869729
C            0.34292035395237       -0.65309647694502       -0.05098528839068
C            1.24192564427502        0.58540570509543        0.01532466680028
H           -0.70580993109101       -0.34358840608002       -0.00297838999725
H            0.46651750953359       -1.12871214426028       -1.02846093739664
C            2.68011318141610        0.25624673478859       -0.28955246997408
O            1.41988321897937       -4.46767496199834        4.01867598145394
H            0.71565888775471       -4.46298512634126        4.70160579771298
O            3.44652243687288       -0.02853750069034        0.60906600528975
N            0.80049017528133        1.65007524518134       -0.88696377698946
H            1.22755590807692        0.98318088500048        1.04281665242428
H            0.56334498108452        1.25556053464960       -1.78908041141647
H           -0.04967849897564        2.07430761415896       -0.53899979631255
N            3.07018538588427        0.32866432960055       -1.60800296593086
C            4.44270101666848        0.66961165271082       -1.92336158119395
H            2.40966357091412        0.64640389838700       -2.32448235427036
C            4.61357040486373        2.17584803250795       -1.99167588811298
O            5.69555716753239        2.58139077764202       -2.36074759231922
O            3.56921499759802        2.98132919092439       -1.66714204382097
H            2.74450225738404        2.49080592836463       -1.39293478589397
C            4.88460556738679        0.00394829754522       -3.22884942782659
H            5.05888065013064        0.30947020266021       -1.08471163367573
C            3.93179149282205        0.24913704766838       -4.35049055966156
H            4.98021464249483       -1.07605235870556       -3.07663671532015
H            5.87863466724599        0.36973875404651       -3.50655423582368
C            3.76738095388260        1.45457772751543       -5.09800489034507
C            4.39399481218358        2.71203075166667       -5.04578669284184
C            3.99433284970536        3.68569851976907       -5.91729730446268
C            2.97260875344620        3.44902923359869       -6.85061275385712
C            2.33587218944838        2.23984465449902       -6.91081684529481
C            2.73008222721995        1.22997676169186       -6.02392206312023
H            5.13773773256437        2.90554810975926       -4.29319238296061
H            4.46090611790820        4.65610910469290       -5.87846304454743
H            2.68063071367985        4.23793408843639       -7.52383213617262
H            1.54595471243426        2.05248738245469       -7.61579948810962
N            2.26778753791180       -0.05866441457488       -5.82570881115772
C            2.99289048147528       -0.63856715462552       -4.81481872542629
H            1.51244627761531       -0.49418825243844       -6.35806392408546
H            2.83724085778497       -1.63681271623146       -4.43875753176551
