48
Energy =
C    -3.1914930   -0.1830907   -1.7507846 
C    -2.4182226    0.8208281   -1.2654764 
C    -3.0143981   -0.6281562   -3.0234321 
C    -2.0617142   -0.0658810   -3.8013419 
C    -1.2858970    0.9389129   -3.3214491 
C    -1.4636867    1.3925786   -2.0504583 
H    -2.5677379    1.1617048   -0.2443795 
H    -1.9268088   -0.4332975   -4.8126586 
H    -0.5226079    1.3729120   -3.9611283 
H    -3.9500011   -0.6302169   -1.1177271 
C    -0.5863174    2.4956476   -1.5000607 
C     0.5790075    1.9313785   -0.6557325 
H    -1.2083720    3.1723223   -0.8732763 
H    -0.1872815    3.1274155   -2.3255401 
C     1.5303551    1.0891405   -1.4857945 
O    -3.7959610   -1.6592982   -3.5551264 
H    -4.4793738   -2.0341151   -2.9065874 
O     1.7534785   -0.2414534   -1.1477282 
N     1.2958499    3.0338583    0.0064064 
H     0.1726954    1.2458633    0.1255200 
H     1.6118398    3.7348752   -0.7080541 
H     0.6483745    3.5318736    0.6613099 
N     2.3533174    1.6959500   -2.4881235 
C     3.7780553    1.8629409   -2.1601578 
H     1.9348484    2.0097697   -3.3926041 
C     4.2592877    3.2688806   -2.5030985 
O     3.7949651    3.8956108   -3.6534652 
O     5.2205697    3.9244222   -1.7321996 
H     5.5477920    3.3628284   -0.9599736 
C     4.5716884    0.7920008   -2.9290950 
H     3.9346155    1.7306780   -1.0628789 
C     5.9923341    0.6902256   -2.4252511 
H     4.5598769    1.0223502   -4.0189277 
H     4.0676546   -0.1947104   -2.8182312 
C     6.4123371   -0.0036540   -1.3566490 
C     5.7121200   -0.7947000   -0.5035372 
C     6.3807641   -1.3826257    0.5296754 
C     7.7217258   -1.1694263    0.6955029 
C     8.4019919   -0.3651603   -0.1705351 
C     7.7189546    0.2017472   -1.1870835 
H     4.6444534   -0.9596152   -0.6292620 
H     5.8431195   -2.0220829    1.2260645 
H     8.2466990   -1.6399314    1.5231558 
H     9.4637577   -0.1793500   -0.0490842 
N     8.2261390    1.0855710   -2.1770827 
C     7.0395251    1.3621808   -2.9344364 
H     9.2010319    1.4383615   -2.3151649 
H     6.9869106    2.0577513   -3.7717705 
