48
 energy: -9.293102645745 gnorm: 0.000491904617 xtb: 6.6.0 (2ccbbd7)
C           -3.90457084744489        0.31182623059394       -1.38514440784510
C           -2.60564473773280        0.63909658374347       -1.69419576903804
C           -4.62765334797765        1.07113415214039       -0.46472059878381
C           -3.99883120849471        2.16591447844454        0.12771349311822
C           -2.70023914057563        2.48734884134280       -0.18751150669699
C           -1.98560470347833        1.73148559581990       -1.10562326662658
H           -2.05390323175412        0.04398630300196       -2.40162817132512
H           -4.55637003144844        2.75137171635721        0.83669436050978
H           -2.22661366548189        3.33412627930713        0.27890451246972
H           -4.37579567974116       -0.53584189173443       -1.84941021275726
C           -0.55898710868506        2.05163899806875       -1.42325859720446
C            0.43586751108610        1.14663304476906       -0.69212208116942
H           -0.34178360395628        3.09231743926741       -1.16509357668636
H           -0.39914751656442        1.97788928659416       -2.50421593397897
C            1.83441470626113        1.44607958368461       -1.16494645799230
O           -5.93299937683944        0.76717999058906       -0.12822094792315
H           -6.23239436275083       -0.02382166261202       -0.62639900351067
O            2.35959844271192        2.48086688786951       -0.80700635100301
N            0.37750994189537        1.31032879239307        0.75152301877808
H            0.20456181508194        0.09467878830762       -0.91768687775917
H            0.83460732278143        2.18080407714908        0.98988868479513
H           -0.58295240798772        1.36048582398360        1.06718236306717
N            2.44158509408042        0.55732134985598       -2.02544985608959
C            3.67892657839493        0.91533317960304       -2.70011620497846
H            1.89761274446180       -0.16403820788177       -2.50082033512115
C            3.35514146503766        1.80630892286102       -3.88819337954100
O            3.52124854773243        1.38841478687162       -5.01261288073499
O            2.87005304484668        3.02872340686186       -3.55858445748102
H            2.71882634954458        3.04561108798839       -2.58496343205751
C            4.50498104373588       -0.32042977070128       -3.08921423854210
H            4.25967233499352        1.50317430110907       -1.97385401351254
C            5.97993344764681       -0.07758147765147       -3.10120260223085
H            4.17720450039319       -0.67415125149053       -4.07174552816229
H            4.28576111290325       -1.13076866974095       -2.38624942522565
C            6.74323842509256        0.62847285455261       -4.08041366087802
C            6.40293337106775        1.29384336666137       -5.27049011585907
C            7.39218843447938        1.87955740867794       -6.00879408470387
C            8.73262752215049        1.82699089725097       -5.59523477558412
C            9.09045378982204        1.19335799808236       -4.43692793683475
C            8.08906082585864        0.58829460202087       -3.66667414041977
H            5.37054875775726        1.36366969490595       -5.56008812911188
H            7.13889490484942        2.39974121309581       -6.91776630821945
H            9.48965270207611        2.29936851717160       -6.19906508317400
H           10.11360887337178        1.15239199695842       -4.10903484299976
N            8.13537257116230       -0.10247568082799       -2.46955898900123
C            6.86332538057843       -0.49471272987000       -2.13584173710891
H            8.98551951694723       -0.27826847730787       -1.93100961332497
H            6.60362137121646       -1.05247097211417       -1.25053578563732
