48
Energy =
C    -3.1675425   -1.1577299   -1.0712444 
C    -1.9712150   -1.7471779   -0.8212678 
C    -3.3085798    0.1875287   -0.9325696 
C    -2.2495420    0.9342090   -0.5452425 
C    -1.0505220    0.3501216   -0.2946156 
C    -0.9039267   -0.9968188   -0.4305256 
H    -1.8719076   -2.8230840   -0.9381739 
H    -2.3747042    2.0065420   -0.4393023 
H    -0.2132571    0.9697081    0.0159337 
H    -4.0105569   -1.7646652   -1.3832156 
C     0.4350904   -1.6536078   -0.1683468 
C     1.1414554   -2.0832993   -1.4739874 
H     0.2795975   -2.5495783    0.4721955 
H     1.0995829   -0.9723772    0.4091683 
C     1.4076241   -0.9147925   -2.4185657 
O    -4.5282020    0.8261283   -1.1790019 
H    -5.2691127    0.2019301   -1.4790521 
O     0.8093258   -0.9141761   -3.6737352 
N     2.3762783   -2.8317221   -1.1591906 
H     0.4555979   -2.7532795   -2.0477562 
H     2.8106752   -2.5011350   -0.2648654 
H     2.1303592   -3.8377242   -0.9965760 
N     2.0574936    0.2873338   -1.9794982 
C     3.4830861    0.2204538   -1.6067803 
H     1.4810909    1.1551905   -1.9062083 
C     4.0207655    1.5881511   -1.2214015 
O     4.0595005    1.9569176    0.1167763 
O     4.4588536    2.4916628   -2.1850363 
H     4.2443115    2.1003714   -3.2384791 
C     4.3236524   -0.4313502   -2.7315371 
H     3.5891031   -0.3912730   -0.6858578 
C     4.0577206    0.1747747   -4.1035487 
H     4.1074949   -1.5215225   -2.7226870 
H     5.4073981   -0.3268323   -2.5029256 
C     3.8591008   -0.5116841   -5.2407885 
C     3.8112390   -1.8593435   -5.4412326 
C     3.6033381   -2.3269044   -6.7037813 
C     3.4518283   -1.4572436   -7.7430501 
C     3.5082902   -0.1155106   -7.5240215 
C     3.7131220    0.3283821   -6.2637754 
H     3.9238330   -2.5694159   -4.6306788 
H     3.5538779   -3.3982863   -6.8829402 
H     3.2839377   -1.8365033   -8.7478029 
H     3.3909773    0.5870900   -8.3418897 
N     3.8125627    1.6909715   -5.8754298 
C     4.0067207    1.6691077   -4.4159784 
H     3.7648009    2.5128467   -6.5233786 
H     4.0783751    2.7726836   -4.2963096 
