48
Energy =
C     0.6362784    1.5587139   -5.5916471 
C     0.6156607    0.7598260   -4.4948185 
C    -0.5198594    2.0867277   -6.0746514 
C    -1.6891569    1.8139716   -5.4530583 
C    -1.7152538    1.0199223   -4.3528536 
C    -0.5612504    0.4851864   -3.8665470 
H     1.5513888    0.3564138   -4.1174631 
H    -2.6034523    2.2438880   -5.8463952 
H    -2.6650809    0.8201463   -3.8651118 
H     1.5811488    1.7780813   -6.0776112 
C    -0.5864715   -0.3914241   -2.6301820 
C    -0.2154276    0.3665929   -1.3287669 
H     0.1029428   -1.2509890   -2.7790163 
H    -1.5945522   -0.8467702   -2.5085529 
C     1.2303669    0.8556313   -1.3325464 
O    -0.5348994    2.9100027   -7.2056779 
H     0.3856583    3.0912439   -7.5910185 
O     1.4998637    2.1436887   -1.7795924 
N    -1.1697393    1.4566445   -1.0641663 
H    -0.2794250   -0.3516355   -0.4788176 
H    -1.0635182    2.2084435   -1.7885434 
H    -2.1509621    1.0995769   -1.1283003 
N     2.2807789   -0.0649610   -0.9365750 
C     3.7276640    0.2904701   -1.1089096 
H     2.0624540   -0.9765199   -1.3946500 
C     4.0608293    1.7046507   -1.6090282 
O     4.2659932    1.9282836   -2.9686274 
O     4.2224674    2.7702366   -0.7208173 
H     3.8660766    2.5438740    0.1963545 
C     4.4604858   -0.7747483   -1.9739074 
H     4.1834658    0.2477078   -0.0962319 
C     4.5253504   -2.1282921   -1.2976923 
H     5.5028619   -0.4464831   -2.1900022 
H     3.9550705   -0.8604699   -2.9619444 
C     5.3259342   -2.4798180   -0.2788613 
C     6.2658488   -1.7544825    0.3803943 
C     6.9546350   -2.3547384    1.3932046 
C     6.6986033   -3.6562988    1.7262532 
C     5.7528028   -4.3660694    1.0474265 
C     5.0841086   -3.7496643    0.0502311 
H     6.4740007   -0.7224783    0.1137047 
H     7.7123115   -1.7957031    1.9374592 
H     7.2525443   -4.1278409    2.5342628 
H     5.5394293   -5.3998579    1.2970716 
N     4.0729710   -4.3058681   -0.7785416 
C     3.7665921   -3.1897687   -1.6244180 
H     3.6653183   -5.2689605   -0.7689110 
H     3.0253455   -3.2081772   -2.4197942 
