48
 energy: -9.208365279203 gnorm: 0.000865047733 xtb: 6.6.0 (2ccbbd7)
C            3.98757472065805        5.61620448646929        3.70144144619486
C            3.13703769095684        4.67426265223616        3.17272669643879
C            5.24574147382053        5.83372117877720        3.13851989370276
C            5.61304675218302        5.07421944549233        2.02800752583760
C            4.75746949378778        4.13483037065429        1.50661885929331
C            3.50975204382297        3.91722293751476        2.07125131949437
H            2.16855575983125        4.51572682809363        3.61518951484361
H            6.58042814930265        5.24397092018277        1.58986276129223
H            5.04263432981852        3.55736734936734        0.64270637158238
H            3.69054824564593        6.19548526354466        4.55723951816902
C            2.58166645076203        2.90254343209430        1.47893552565843
C            2.08824691267267        3.28819744967741        0.08231147697918
H            1.71396188889975        2.76142289995833        2.12980739991415
H            3.08703783453147        1.93283871292016        1.44106581626485
C            1.21491332662009        2.19907683588209       -0.49721054751861
O            6.12363994821007        6.77135685329591        3.64738883000094
H            5.72504099716308        7.21940656342875        4.42433512488984
O            0.03134491548046        2.24179946383467       -0.22807387677594
N            1.32782786772657        4.52922274213696        0.09508770256923
H            2.94921048431253        3.45707334837932       -0.58019050590508
H            0.37763529910665        4.31306696113727        0.38609593466689
H            1.72648226794166        5.19314202477384        0.74764736094295
N            1.73561217592514        1.18928366877258       -1.28548102225150
C            3.14898321841277        0.78371793661349       -1.32701319385035
H            1.09882325804547        0.45702306330322       -1.59047844607101
C            4.05344386523402        1.93185728208475       -1.72426973426117
O            4.85203471190089        2.29860210073101       -0.88726179871548
O            3.93757651456860        2.48308973153830       -2.95456309092059
H            3.08858905010890        2.23326546770531       -3.64066827254605
C            3.37477053170885       -0.39571705572755       -2.27338086648131
H            3.42345430968270        0.48702700585505       -0.30456500606347
C            3.07214241726101       -0.00459133122891       -3.66775467046687
H            2.74826317857871       -1.24462927877837       -1.98282992104382
H            4.41560046840596       -0.72948232816353       -2.20978839649901
C            3.36226565229942       -0.66745985059551       -4.84331440532184
C            3.95968564567945       -1.93031375935822       -5.08642763478512
C            4.07568218824859       -2.36664785019373       -6.37768939072012
C            3.61621433586669       -1.59348160774375       -7.45445463379649
C            3.03805625903418       -0.35774179289157       -7.25798862704313
C            2.91601092145430        0.12994411191131       -5.96131825444390
H            4.30208774275176       -2.52650150103735       -4.25967371966699
H            4.52516733019416       -3.32585401497027       -6.57399479004980
H            3.71998634667669       -1.97396237617511       -8.45690795091270
H            2.69399300134678        0.23792681869702       -8.08426715778441
N            2.39668582616886        1.32201275638592       -5.49030731009665
C            2.41582343825806        1.27553566858076       -4.03901169942165
H            1.61384324391480        1.81588892226225       -5.92690815023484
H            2.27318013979642        2.34047311514493       -3.42688845148186
