48
Energy =
C    -3.7269474    0.9748872   -1.5517535 
C    -2.6203517    1.6869879   -1.2203547 
C    -3.7909227    0.3273157   -2.7459792 
C    -2.7449633    0.3965763   -3.6004557 
C    -1.6363548    1.1072009   -3.2739998 
C    -1.5689667    1.7604093   -2.0825267 
H    -2.5822695    2.1936252   -0.2596336 
H    -2.8068533   -0.1260625   -4.5482678 
H    -0.8040742    1.1478196   -3.9695051 
H    -4.5591294    0.9234442   -0.8582798 
C    -0.3249169    2.5371505   -1.7140171 
C     0.8351767    1.6166434   -1.2633514 
H    -0.5371509    3.2854769   -0.9194879 
H     0.0049468    3.1299233   -2.5976820 
C     2.1368057    2.3834573   -1.0973004 
O    -4.9160597   -0.4160054   -3.1182582 
H    -5.6557164   -0.4167292   -2.4244840 
O     2.1471915    3.6244721   -1.0877791 
N     0.4959071    0.9136063   -0.0162330 
H     1.0248340    0.8689977   -2.0649167 
H     0.1979651    1.6061539    0.7104816 
H    -0.3072357    0.2645678   -0.1864399 
N     3.3923384    1.6828968   -1.0933384 
C     4.4808977    2.3945869   -1.7861648 
H     3.4846891    0.7408633   -0.6506390 
C     4.1104347    3.8639614   -1.9818197 
O     4.9476495    4.7102424   -2.7033650 
O     3.0709166    4.3127261   -1.4766788 
H     2.8560301    4.0679195   -0.5324362 
C     4.8283385    1.6741462   -3.1123114 
H     5.3812865    2.3984684   -1.1353076 
C     3.6075843    1.2950866   -3.9293639 
H     5.3923598    0.7478120   -2.8664919 
H     5.5171938    2.2983509   -3.7235062 
C     2.9274764    2.0640402   -4.7970416 
C     3.1584164    3.3374481   -5.2069196 
C     2.2977582    3.8983103   -6.1042550 
C     1.2346456    3.1836583   -6.5813240 
C     1.0271700    1.9028349   -6.1655235 
C     1.8896182    1.3719915   -5.2734103 
H     4.0055413    3.9064601   -4.8417838 
H     2.4593304    4.9200526   -6.4407568 
H     0.5534783    3.6380248   -7.2967663 
H     0.1911588    1.3204271   -6.5379560 
N     1.8480308    0.0660236   -4.7174920 
C     2.9938227    0.0998962   -3.8575309 
H     1.1646253   -0.7086378   -4.8819429 
H     3.3009342   -0.7199940   -3.2127250 
