48
Energy =
C    -0.5962676    1.4910490   -3.7842690 
C    -0.5552502    1.1946483   -2.4610938 
C    -0.6210322    0.4962055   -4.7084443 
C    -0.6108909   -0.7915650   -4.3012856 
C    -0.5635559   -1.0949658   -2.9800405 
C    -0.5141831   -0.1056352   -2.0432190 
H    -0.5383555    2.0194119   -1.7576636 
H    -0.6405458   -1.5769257   -5.0483656 
H    -0.5615649   -2.1390302   -2.6792485 
H    -0.6071122    2.5293785   -4.0985326 
C    -0.4621482   -0.5073025   -0.5727191 
C     0.0780581    0.5446337    0.4372077 
H     0.1870701   -1.4059076   -0.4813323 
H    -1.4782811   -0.8320945   -0.2615383 
C     1.4033329    1.1611434    0.0012508 
O    -0.6593354    0.7677935   -6.0801668 
H    -0.6480596    1.7581690   -6.3006334 
O     1.5253516    2.3897408   -0.1254387 
N    -0.9392925    1.5747446    0.7382058 
H     0.3240673   -0.0013485    1.3774696 
H    -1.8423361    1.4097853    0.2361828 
H    -1.1465956    1.5893091    1.7630742 
N     2.5336290    0.3231172   -0.3039610 
C     3.4167152    0.8550155   -1.3590304 
H     2.6815345   -0.5978176    0.1660454 
C     3.0790838    2.3212438   -1.6374831 
O     3.6364772    2.9769962   -2.7315382 
O     2.3132990    2.9312125   -0.8768976 
H     2.4099629    2.7981747    0.1094146 
C     3.2717209   -0.0086921   -2.6271828 
H     4.4692303    0.8379292   -1.0023924 
C     3.7975155   -1.4080352   -2.4109940 
H     3.8163107    0.4577075   -3.4785508 
H     2.2021828   -0.0439811   -2.9265531 
C     5.0828066   -1.7923512   -2.4197365 
C     6.2068796   -1.0647529   -2.6437651 
C     7.4117656   -1.7020421   -2.5909041 
C     7.4738182   -3.0407745   -2.3169259 
C     6.3308043   -3.7502475   -2.0937066 
C     5.1511599   -3.0971711   -2.1526311 
H     6.1581015   -0.0014407   -2.8606124 
H     8.3271812   -1.1422486   -2.7676773 
H     8.4380247   -3.5413649   -2.2764426 
H     6.3619383   -4.8117883   -1.8735711 
N     3.8550126   -3.6417418   -1.9457743 
C     3.0366668   -2.4783844   -2.1266176 
H     3.5790084   -4.6244666   -1.7189351 
H     1.9547749   -2.4652259   -2.0301392 
