48
Energy =
C     1.9422899    7.1594886   -4.3902076 
C     2.2436218    6.1143024   -3.5775677 
C     0.6472664    7.5262451   -4.5810625 
C    -0.3391027    6.8454201   -3.9551893 
C    -0.0449000    5.7999706   -3.1413728 
C     1.2502581    5.4271652   -2.9466615 
H     3.2881898    5.8391045   -3.4333697 
H    -1.3680145    7.1492118   -4.1154504 
H    -0.8545248    5.2649502   -2.6511193 
H     2.7402482    7.7019073   -4.8868002 
C     1.5790339    4.2481076   -2.0559255 
C     1.7687773    2.9348135   -2.8588704 
H     0.7865886    4.1069778   -1.2870445 
H     2.5114877    4.4760057   -1.4809540 
C     2.2857010    1.8333567   -1.9490470 
O     0.3035401    8.5952489   -5.4140282 
H     1.0992425    9.0605439   -5.8372425 
O     1.5972003    1.5321853   -0.7790654 
N     0.5113803    2.5234043   -3.5126420 
H     2.5588000    3.0856300   -3.6300200 
H    -0.2579591    2.4548518   -2.8028345 
H     0.2276123    3.2277794   -4.2333924 
N     3.3440413    0.9558999   -2.3615539 
C     4.7194698    1.4859028   -2.5389328 
H     3.0649922   -0.0026544   -2.6647227 
C     4.8946621    2.9030258   -1.9814371 
O     4.6889095    4.0020535   -2.8060410 
O     5.0748477    3.1388316   -0.6239871 
H     5.0704824    2.2829333   -0.0883789 
C     5.2218499    1.3597569   -4.0161238 
H     5.3935632    0.8538711   -1.9202153 
C     4.2454608    0.7319543   -4.9889413 
H     6.1648626    0.7708922   -4.0330183 
H     5.5193037    2.3545014   -4.4198139 
C     4.0213169   -0.5785130   -5.1713584 
C     4.5843654   -1.6505570   -4.5572586 
C     4.1681886   -2.8973870   -4.9212707 
C     3.2064746   -3.0516295   -5.8815971 
C     2.6547828   -1.9594826   -6.4835309 
C     3.0840399   -0.7368019   -6.1068332 
H     5.3438762   -1.5273702   -3.7907505 
H     4.6020653   -3.7730951   -4.4443941 
H     2.8790969   -4.0487179   -6.1654793 
H     1.8893291   -2.0637841   -7.2449614 
N     2.6389364    0.5197584   -6.5979110 
C     3.4430750    1.4177492   -5.8217869 
H     1.9221479    0.7300469   -7.3297451 
H     3.4137929    2.5012124   -5.9094070 
