48
Energy =
C    -1.2951688    1.3829858   -5.1839418 
C    -1.4813945    0.3886666   -4.2790726 
C    -0.2656099    1.3175816   -6.0701837 
C     0.5723908    0.2565693   -6.0420486 
C     0.3848144   -0.7438151   -5.1449269 
C    -0.6404461   -0.6828164   -4.2533718 
H    -2.3068801    0.4580321   -3.5760495 
H     1.4001776    0.2192438   -6.7417981 
H     1.0644942   -1.5907883   -5.1426008 
H    -1.9716657    2.2305130   -5.1974798 
C    -0.8358913   -1.7875138   -3.2348512 
C    -0.0082240   -1.5919059   -1.9394695 
H    -0.5732904   -2.7677705   -3.6936039 
H    -1.9125003   -1.8667516   -2.9681736 
C     1.4932187   -1.7394687   -2.1628900 
O    -0.0535681    2.3217393   -7.0211083 
H    -0.7022514    3.0973152   -6.9519782 
O     1.9625459   -2.8683907   -2.8295178 
N    -0.3501991   -0.3189527   -1.2792306 
H    -0.2741582   -2.4218310   -1.2470560 
H    -0.0183914    0.4865562   -1.8636643 
H    -1.3888498   -0.2356394   -1.1833113 
N     2.4088632   -1.0331971   -1.3118913 
C     3.6349794   -0.4561156   -1.8926778 
H     2.1539721   -0.8886628   -0.3087535 
C     3.4076426    0.2367375   -3.2423989 
O     3.1896265    1.6081800   -3.2623143 
O     3.4151115   -0.4501615   -4.4596946 
H     3.3958547   -1.4494204   -4.3287396 
C     4.7418688   -1.5326896   -1.8997586 
H     3.9710830    0.3614509   -1.2147920 
C     6.0825039   -0.9569872   -2.3003744 
H     4.4650723   -2.3803582   -2.5642896 
H     4.8161681   -1.9839262   -0.8867534 
C     6.9664038   -0.3460070   -1.4950780 
C     6.9127212   -0.1171660   -0.1574806 
C     7.9513694    0.5449581    0.4285631 
C     9.0136016    0.9668641   -0.3224488 
C     9.0430784    0.7302122   -1.6648088 
C     8.0052740    0.0704355   -2.2205938 
H     6.0675777   -0.4437065    0.4404653 
H     7.9329231    0.7419624    1.4978204 
H     9.8357944    1.4973657    0.1514252 
H     9.8742407    1.0645333   -2.2764153 
N     7.8314676   -0.2586503   -3.5912211 
C     6.5561621   -0.9141860   -3.5587399 
H     8.4675639   -0.0773808   -4.4015821 
H     6.0298183   -1.2809134   -4.4397985 
