48
Energy =
C     1.0573717    0.3502276    2.0667625 
C     0.5940073    1.4102765    1.3582256 
C     1.2458202   -0.8501752    1.4570558 
C     0.9844804   -0.9758860    0.1354755 
C     0.5187060    0.0810972   -0.5781252 
C     0.3087983    1.2791916    0.0332860 
H     0.4446489    2.3621787    1.8617498 
H     1.1528888   -1.9343168   -0.3428108 
H     0.3148466   -0.0400541   -1.6389068 
H     1.2707678    0.4639780    3.1242101 
C    -0.2215689    2.4628003   -0.7469917 
C     0.9159805    3.4025729   -1.2119379 
H    -0.9360076    3.0198626   -0.1012330 
H    -0.8131019    2.1202323   -1.6275139 
C     1.7030724    2.8020208   -2.3723770 
O     1.7020692   -1.9669834    2.1664361 
H     1.8644492   -1.7890857    3.1514828 
O     1.1287427    2.8100382   -3.6387956 
N     0.3587333    4.7104539   -1.5914691 
H     1.6295352    3.5679148   -0.3736927 
H    -0.3470208    4.5912094   -2.3581913 
H    -0.1229044    5.1512757   -0.7734715 
N     2.7563240    1.8538600   -2.1410116 
C     3.8728783    2.1973561   -1.2320445 
H     2.6886130    0.9472145   -2.6536141 
C     4.3294581    3.6488534   -1.3646595 
O     4.4029811    4.4361431   -0.2229528 
O     4.6808723    4.2053274   -2.5924191 
H     4.5023653    3.5608895   -3.3491964 
C     5.0577111    1.2339367   -1.4677042 
H     3.5304251    2.0771916   -0.1788036 
C     4.7048781   -0.1941039   -1.1091037 
H     5.9210375    1.5442328   -0.8354230 
H     5.4038985    1.3057276   -2.5205425 
C     4.4186752   -1.2018607   -1.9519139 
C     4.3905436   -1.2274963   -3.3105089 
C     4.0420939   -2.3913958   -3.9304572 
C     3.7286274   -3.4997201   -3.1937746 
C     3.7626162   -3.4511947   -1.8322071 
C     4.1154400   -2.2903386   -1.2424333 
H     4.6313752   -0.3498914   -3.9018359 
H     4.0114855   -2.4373743   -5.0165875 
H     3.4499299   -4.4231761   -3.6952430 
H     3.5118577   -4.3190396   -1.2312646 
N     4.1862048   -2.0256432    0.1494916 
C     4.5798070   -0.6489133    0.1495899 
H     4.0282691   -2.6694369    0.9597418 
H     4.7232119   -0.0532475    1.0477437 
