48
Energy =
C    -1.5162341    1.6124768    3.4226814 
C    -0.8416211    2.5302135    2.6799189 
C    -1.4295169    0.2865936    3.1201994 
C    -0.6699576   -0.1120353    2.0741734 
C    -0.0009269    0.8071810    1.3375498 
C    -0.0670362    2.1271941    1.6363724 
H    -0.9293563    3.5849700    2.9265694 
H    -0.6052777   -1.1673544    1.8345709 
H     0.6927928    0.5688917    0.4139286 
H    -2.1279200    1.9415658    4.2557427 
C     0.6649039    3.1338083    0.7557024 
C     2.0753745    2.6548198    0.2951842 
H     0.7752740    4.0900395    1.3127399 
H     0.0368110    3.3514989   -0.1363915 
C     2.0181073    1.5116722   -0.7387034 
O    -2.1098322   -0.6818202    3.8652090 
H    -2.6587555   -0.3024324    4.6287486 
O     1.3376192    0.3292599   -0.4481632 
N     2.8501819    3.8040091   -0.2028718 
H     2.6100047    2.2244830    1.1755245 
H     2.3544155    4.2503719   -1.0142485 
H     2.9468204    4.5311194    0.5449207 
N     2.5464806    1.6697258   -2.0552305 
C     4.0108600    1.7053742   -2.2087608 
H     1.8852454    1.7997321   -2.8541693 
C     4.4485328    2.8279789   -3.1397039 
O     3.5718836    3.3249046   -4.0957788 
O     5.7584613    3.3068510   -3.1305808 
H     6.3108380    2.9053934   -2.3883671 
C     4.5054229    0.3289037   -2.7004044 
H     4.4937401    1.9295045   -1.2305678 
C     3.8877691   -0.0703794   -4.0270347 
H     4.2750738   -0.4356811   -1.9273715 
H     5.6129923    0.3410516   -2.8038981 
C     2.8069124   -0.8460551   -4.2170795 
C     2.0106314   -1.4721851   -3.3120986 
C     0.9504734   -2.1963319   -3.7714932 
C     0.7021554   -2.2827929   -5.1131823 
C     1.5113924   -1.6423552   -6.0036967 
C     2.5551008   -0.9334135   -5.5247677 
H     2.1926544   -1.3954087   -2.2446037 
H     0.2957139   -2.7003008   -3.0645968 
H    -0.1478318   -2.8583499   -5.4707395 
H     1.3233896   -1.6925740   -7.0707402 
N     3.4958237   -0.1803648   -6.2763214 
C     4.3172194    0.3560849   -5.2289614 
H     3.5728430   -0.0609526   -7.3127530 
H     5.1333816    1.0630714   -5.3823616 
