48
Energy =
C    -1.1365768    4.7984438   -0.5771176 
C    -0.9158204    3.4788159   -0.3479126 
C    -0.5221989    5.4247540   -1.6166587 
C     0.3141788    4.7262540   -2.4169765 
C     0.5344048    3.4071951   -2.1950440 
C    -0.0806458    2.7720548   -1.1585632 
H    -1.4115281    2.9943106    0.4890362 
H     0.8105542    5.2365071   -3.2351153 
H     1.2165993    2.8699498   -2.8456829 
H    -1.8057660    5.3514732    0.0730875 
C     0.1678147    1.2975708   -0.9063387 
C     1.4521098    1.0177566   -0.0817738 
H     0.2229994    0.7678632   -1.8827747 
H    -0.7059080    0.8489866   -0.3842977 
C     2.7100966    1.5572833   -0.7593925 
O    -0.7365227    6.7807067   -1.8853712 
H    -1.3503931    7.2393449   -1.2214130 
O     3.1345009    2.8428852   -0.4433026 
N     1.3093494    1.5113577    1.2981201 
H     1.5881118   -0.0859727   -0.0301396 
H     1.2621662    2.5596849    1.3000419 
H     0.4204571    1.1549378    1.7194584 
N     3.1741577    0.9065657   -1.9637129 
C     4.4661030    1.2344427   -2.6204910 
H     2.4903108    0.2892596   -2.4466002 
C     5.0644564    2.6124402   -2.2878617 
O     4.6162936    3.7550333   -2.9389741 
O     6.1052933    2.7469378   -1.3659616 
H     6.2272329    1.9186733   -0.8037237 
C     4.3711482    0.9820179   -4.1564864 
H     5.2120945    0.5012297   -2.2453864 
C     3.1434703    1.5880984   -4.8234014 
H     4.3872880   -0.1129128   -4.3418728 
H     5.2845661    1.3754790   -4.6576117 
C     1.9789221    0.9689565   -5.0990746 
C     1.6007547   -0.3209048   -4.8913741 
C     0.3413591   -0.6963107   -5.2551236 
C    -0.5119341    0.2079651   -5.8224491 
C    -0.1090414    1.4919732   -6.0351793 
C     1.1413117    1.8396667   -5.6668131 
H     2.2744159   -1.0476745   -4.4490975 
H     0.0153540   -1.7216802   -5.0978186 
H    -1.5137626   -0.0991875   -6.1121432 
H    -0.7712090    2.2203719   -6.4912591 
N     1.7497616    3.1129319   -5.8090386 
C     3.0469264    2.8614636   -5.2506529 
H     1.3568036    3.9952817   -6.2115544 
H     3.8454125    3.5999155   -5.2045896 
