48
Energy =
C    -0.8575048   -3.8733501   -4.1136355 
C    -0.4905079   -2.5701641   -4.2080077 
C    -0.5437263   -4.7455943   -5.1083454 
C     0.1373786   -4.3075688   -6.1906477 
C     0.5083096   -3.0068714   -6.2892973 
C     0.1986190   -2.1271284   -5.2959307 
H    -0.7387372   -1.8879448   -3.3991995 
H     0.3837502   -5.0122508   -6.9765858 
H     1.0572065   -2.6758829   -7.1662980 
H    -1.3982506   -4.2157162   -3.2380552 
C     0.6098399   -0.6711992   -5.4044932 
C     2.0012855   -0.3545014   -4.8028261 
H    -0.1544997   -0.0302654   -4.9119109 
H     0.6062128   -0.3644235   -6.4735354 
C     2.0450908   -0.5125438   -3.2864308 
O    -0.9101610   -6.0938993   -5.0448119 
H    -1.3983015   -6.3458557   -4.1922850 
O     1.9769277   -1.7695852   -2.6968787 
N     3.0667159   -1.1310565   -5.4622871 
H     2.1950369    0.7233975   -5.0044084 
H     2.9666380   -2.1469074   -5.2203735 
H     2.9888468   -1.0366373   -6.5020986 
N     2.1006371    0.6337419   -2.4235746 
C     3.3317433    1.4525515   -2.3699985 
H     1.2457183    0.8673966   -1.8712452 
C     3.2377558    2.6520494   -3.3109693 
O     3.9669842    2.6756971   -4.4941953 
O     2.4057379    3.7317203   -3.0236205 
H     1.8684174    3.5767335   -2.1844208 
C     4.5952816    0.5836404   -2.6088066 
H     3.4075571    1.8828504   -1.3460561 
C     5.8614698    1.3097569   -2.2101940 
H     4.6522460    0.2782279   -3.6817836 
H     4.5136003   -0.3642484   -2.0312699 
C     6.3793457    1.3948660   -0.9750337 
C     5.9411606    0.8541985    0.1911362 
C     6.6541098    1.1013388    1.3273948 
C     7.7787577    1.8783186    1.2822300 
C     8.1971874    2.4136702    0.1001628 
C     7.4766196    2.1524861   -1.0105236 
H     5.0461477    0.2395167    0.2306891 
H     6.3259803    0.6790121    2.2744310 
H     8.3406819    2.0718041    2.1927136 
H     9.0844232    3.0357716    0.0478668 
N     7.7286996    2.6199627   -2.3278411 
C     6.6307832    2.0343526   -3.0430200 
H     8.5066324    3.2240806   -2.6802540 
H     6.4316314    2.1848789   -4.1050969 
