48
Energy =
C     1.4382709   -2.6988236    0.7898385 
C     0.7181940   -1.5549148    0.8912169 
C     2.7217678   -2.6648124    0.3476109 
C     3.2758907   -1.4853704   -0.0055471 
C     2.5507071   -0.3262535    0.0334039 
C     1.2643026   -0.3613748    0.5367780 
H    -0.3024319   -1.6009868    1.2622859 
H     4.3121658   -1.4711725   -0.3190766 
H     3.1822935    0.8045237   -0.1887582 
H     0.9868331   -3.6419169    1.0771716 
C     0.4175283    0.8983580    0.6560544 
C     1.0832589    2.1757294    0.0882057 
H     0.1682693    1.0611799    1.7272043 
H    -0.5374643    0.7235155    0.1113250 
C     1.7017580    1.8979830   -1.2789705 
O     3.4978356   -3.8262211    0.2552206 
H     3.0109017   -4.6674723    0.5439662 
O     0.9948477    2.2420078   -2.4291850 
N     0.1143174    3.2819792    0.0515205 
H     1.9239759    2.4711832    0.7562784 
H    -0.6714265    3.0463268   -0.6018267 
H    -0.3020513    3.4210207    1.0018633 
N     2.6989953    0.8385208   -1.3734833 
C     3.9532292    1.1540561   -2.1591824 
H     2.1565010    0.1777598   -2.0344806 
C     3.9825705    2.5573797   -2.8036724 
O     3.5366663    2.7417762   -4.1076892 
O     4.4248227    3.6704629   -2.0850808 
H     4.6640661    3.4381715   -1.1331079 
C     4.2577007    0.0334500   -3.1967375 
H     4.8223687    1.1524155   -1.4593511 
C     5.6763063    0.1099023   -3.7252778 
H     3.5184156    0.0705149   -4.0266607 
H     4.1274859   -0.9630203   -2.7208435 
C     6.0816184    0.5350110   -4.9351406 
C     5.3596993    0.9825233   -5.9957588 
C     6.0274602    1.3580211   -7.1240835 
C     7.3910282    1.2787250   -7.1790714 
C     8.0958303    0.8230614   -6.1054029 
C     7.4131705    0.4592459   -4.9994796 
H     4.2772540    1.0499425   -5.9624683 
H     5.4709684    1.7253000   -7.9832419 
H     7.9152026    1.5815690   -8.0821030 
H     9.1779556    0.7535062   -6.1326575 
N     7.9549729   -0.0402459   -3.7854389 
C     6.7640287   -0.2413269   -3.0158818 
H     8.9530122   -0.2135538   -3.5254862 
H     6.7498011   -0.6265476   -1.9990172 
