48
 energy: -9.178237197820 gnorm: 0.001547377011 xtb: 6.6.0 (2ccbbd7)
C           -0.26257078999685        0.79371779029622       -4.90606717756466
C            0.17984780794100        0.67282211721823       -3.61099332557861
C           -1.38546360709063        0.09011347108485       -5.34031651435633
C           -2.03934404263327       -0.73226279076396       -4.42408246076482
C           -1.58441867069921       -0.85038393337691       -3.13189486052375
C           -0.46686884292317       -0.14853509326917       -2.69817827293643
H            1.03449876218860        1.24592723934183       -3.30073678060446
H           -2.90378243296263       -1.27892450236394       -4.75620283309187
H           -2.09392526635478       -1.50230228584140       -2.44319755912272
H            0.25969162159196        1.43312334245202       -5.59545086473074
C            0.04889356479458       -0.35722319826320       -1.30129088429767
C            0.47892643130929        0.91788748820091       -0.55085653146332
H            0.88796858807060       -1.05843897918839       -1.34264861051358
H           -0.72991983514951       -0.85724542170565       -0.71678061895476
C            1.72529800940257        1.49742522461334       -1.13339811570442
O           -1.85696833486605        0.18864205370062       -6.63586322951322
H           -1.28092554760126        0.78832306144195       -7.15722909503671
O            1.63260679646184        2.68510650675037       -1.87273828170075
N           -0.59290618230134        1.90350625484142       -0.53405930554417
H            0.69916009121904        0.65460301102696        0.49687518841081
H           -0.26480304175094        2.74691461608082       -0.08242649530264
H           -0.79939423691059        2.15949141386768       -1.48890217441641
N            2.93890893851098        0.83825438723037       -1.01675938906275
C            4.02306883689766        1.08528582857058       -1.97309529198599
H            2.93451260829176       -0.12262102291183       -0.68309665251239
C            3.42151659362012        1.53350703476936       -3.28829725656468
O            3.63409779989742        0.92024236947922       -4.33066370103000
O            2.59109264670976        2.66798655778561       -3.19582108447624
H            2.66044510046470        3.14024258751642       -2.14524970476819
C            4.94372565581882       -0.13505426781837       -2.12231553023308
H            4.61327097839670        1.92146503998357       -1.57221769844012
C            6.24657506004473        0.16195418265368       -2.79064975684084
H            4.41306158371072       -0.90320365818423       -2.69307405167456
H            5.13764297545448       -0.56772776503485       -1.13607842718642
C            7.55565373516525       -0.02509093848688       -2.25187913965091
C            8.02584211319630       -0.49390287862312       -1.01219938918296
C            9.37626869902454       -0.57082399288068       -0.80849837205488
C           10.28557600844528       -0.19347045321267       -1.81041495323879
C            9.85223880522566        0.26528852775013       -3.02458397207409
C            8.47305988021362        0.35363843344832       -3.25304646182443
H            7.32804584571496       -0.78245560077192       -0.24643730309597
H            9.75149339913892       -0.92886084161111        0.13606527582933
H           11.34311113028676       -0.26968074971704       -1.61805071048798
H           10.54086845372769        0.55362951358990       -3.79848068077954
N            7.74399638308429        0.76201128150725       -4.35695521777713
C            6.40879891261281        0.63717423076998       -4.06678980804875
H            8.14337076059925        1.06663738910083       -5.24662506054761
H            5.59746433436171        0.88499484229194       -4.73062685919261
