48
Energy =
C    -2.7143390   -2.4190184    1.7500170 
C    -1.5092546   -1.7948987    1.7363821 
C    -3.1161731   -3.1528699    0.6778091 
C    -2.3084239   -3.2560840   -0.4020003 
C    -1.1023820   -2.6343506   -0.4211206 
C    -0.6941968   -1.9025938    0.6516489 
H    -1.2014373   -1.2087782    2.5992253 
H    -2.6421325   -3.8418193   -1.2513373 
H    -0.4700505   -2.7240385   -1.3005305 
H    -3.3559532   -2.3285168    2.6198854 
C     0.6396610   -1.1925973    0.6299653 
C     0.4981805    0.3138651    0.3103570 
H     1.3250574   -1.6680853   -0.1034860 
H     1.1302594   -1.3162256    1.6234140 
C     1.8341332    1.0174731    0.4788015 
O    -4.3516889   -3.8081481    0.6586441 
H    -4.8979495   -3.6811037    1.5037255 
O     2.4339137    1.0052899    1.7336803 
N    -0.0718422    0.5122877   -1.0360181 
H    -0.1632596    0.7936606    1.0701965 
H     0.4020163   -0.1202996   -1.7213930 
H    -1.0843708    0.2429386   -1.0255034 
N     2.3433482    1.9170087   -0.5142598 
C     3.8069630    1.9777136   -0.6746041 
H     1.6765354    2.4327091   -1.1312219 
C     4.3016669    3.4098579   -0.4978519 
O     4.9174045    4.0761918   -1.5527262 
O     4.1634931    4.0728127    0.7204448 
H     3.6629965    3.5038922    1.3932486 
C     4.2119738    1.3756272   -2.0400583 
H     4.3163956    1.4089500    0.1331497 
C     3.6858689   -0.0292716   -2.2429902 
H     5.3203888    1.3675084   -2.1346070 
H     3.8338896    2.0369446   -2.8532191 
C     4.0597420   -1.1423901   -1.5904608 
C     4.9885027   -1.3129060   -0.6150168 
C     5.1650469   -2.5637594   -0.0980443 
C     4.4230164   -3.6139193   -0.5632907 
C     3.5027429   -3.4210853   -1.5499814 
C     3.3465969   -2.1753709   -2.0441865 
H     5.5815943   -0.4808308   -0.2492367 
H     5.8984971   -2.7280248    0.6892548 
H     4.5681059   -4.6080152   -0.1462766 
H     2.9073321   -4.2439847   -1.9317085 
N     2.4435478   -1.7639294   -3.0594734 
C     2.7294832   -0.3609029   -3.1278550 
H     1.7477005   -2.3283373   -3.5994819 
H     2.2260599    0.3369061   -3.7940616 
