48
Energy =
C    -3.8341578   -2.4001322   -1.3890523 
C    -2.5482398   -2.2931021   -1.8095973 
C    -4.1681572   -2.0567438   -0.1162526 
C    -3.2115438   -1.6070299    0.7272308 
C    -1.9241769   -1.4976960    0.3121609 
C    -1.5840376   -1.8437176   -0.9595408 
H    -2.2985690   -2.5667308   -2.8315474 
H    -3.4908905   -1.3346433    1.7389721 
H    -1.1704998   -1.1317102    1.0042269 
H    -4.5946888   -2.7597230   -2.0736735 
C    -0.1516466   -1.7076909   -1.4266498 
C     0.2241897   -0.2440195   -1.7606462 
H     0.0389096   -2.3521284   -2.3148118 
H     0.5215565   -2.0937672   -0.6291355 
C     1.7244333   -0.1124277   -1.9978974 
O    -5.4837240   -2.1550608    0.3488750 
H    -6.1399981   -2.4991772   -0.3433961 
O     2.3095060   -1.0018930   -2.8916694 
N    -0.5266186    0.2339930   -2.9325135 
H    -0.0282360    0.4016810   -0.8890543 
H    -0.3542145   -0.4029811   -3.7467630 
H    -1.5527388    0.2277999   -2.7278047 
N     2.4102470    1.0671391   -1.5000902 
C     3.8895837    1.2790645   -1.6169211 
H     2.1870087    1.0832875   -0.4780438 
C     4.1897200    2.7989355   -1.5654901 
O     5.3428469    3.3185969   -2.1351859 
O     3.3839708    3.7044801   -0.8705124 
H     2.5167123    3.3072003   -0.5551891 
C     4.5347281    0.5689781   -2.8488734 
H     4.3852508    0.8664276   -0.7100616 
C     6.0215159    0.8110464   -3.0392453 
H     3.9595393    0.8252516   -3.7660527 
H     4.4711565   -0.5269273   -2.7140113 
C     7.0210503    0.2816854   -2.3136826 
C     6.9737845   -0.5724760   -1.2584067 
C     8.1495137   -0.9689989   -0.6920968 
C     9.3414376   -0.5141597   -1.1842480 
C     9.3649868    0.3383858   -2.2476994 
C     8.1887584    0.7167688   -2.7903732 
H     6.0302718   -0.9409302   -0.8681735 
H     8.1391122   -1.6508672    0.1547813 
H    10.2742516   -0.8340606   -0.7267630 
H    10.3016881    0.7071021   -2.6516252 
N     7.9950294    1.5812915   -3.8999792 
C     6.5632023    1.5894778   -3.9949185 
H     8.7063714    2.0652304   -4.4941630 
H     5.9942939    2.1973665   -4.6965167 
