48
Energy =
C     0.2173331   -1.0256240    4.7736747 
C     0.3743807   -1.4224721    3.4860110 
C    -0.3955304    0.1543974    5.0560795 
C    -0.8543850    0.9258430    4.0451987 
C    -0.7027058    0.5319650    2.7566211 
C    -0.0631053   -0.6351879    2.4606931 
H     0.8387860   -2.3839316    3.2890990 
H    -1.3511681    1.8614535    4.2771256 
H    -1.1042468    1.1590092    1.9660699 
H     0.5754337   -1.6604885    5.5772101 
C     0.0840676   -1.0927543    1.0148190 
C     1.3943724   -0.6734087    0.2822155 
H    -0.7843460   -0.7260217    0.4236361 
H     0.0094215   -2.2020676    0.9802161 
C     1.4901183    0.8140915   -0.0453002 
O    -0.5771372    0.5885694    6.3742168 
H    -0.1903204   -0.0394970    7.0699173 
O     0.9782804    1.7880454    0.8020380 
N     2.6219259   -1.1388800    0.9602597 
H     1.3311190   -1.1812346   -0.7084297 
H     2.4121776   -1.7179093    1.8008761 
H     3.1565091   -1.7683443    0.3190816 
N     2.1208469    1.2437412   -1.2610057 
C     3.5941338    1.2409479   -1.2899390 
H     1.5203115    1.4986306   -2.0754102 
C     4.1444302    2.5929418   -1.7008534 
O     4.7853539    3.3986676   -0.7706799 
O     4.0639400    3.0158715   -3.0267445 
H     3.5227766    2.2142587   -3.6510788 
C     4.0989738    0.1011586   -2.2097800 
H     3.9998669    1.0727367   -0.2617314 
C     3.7910618    0.2468166   -3.6988000 
H     3.6539268   -0.8543302   -1.8580964 
H     5.2025096    0.0136552   -2.0868879 
C     4.1464653   -0.6697562   -4.6075157 
C     4.9114187   -1.7842503   -4.4439852 
C     5.1297208   -2.5891659   -5.5213544 
C     4.5800046   -2.2797308   -6.7314919 
C     3.8087316   -1.1653486   -6.8663987 
C     3.6132640   -0.3786627   -5.7845920 
H     5.3479032   -2.0389902   -3.4826552 
H     5.7408452   -3.4829766   -5.4165084 
H     4.7524086   -2.9275847   -7.5877618 
H     3.3540883   -0.9149812   -7.8190458 
N     2.8062773    0.7898846   -5.7398912 
C     2.9195014    1.3269275   -4.3595050 
H     2.3103031    1.1909900   -6.5760175 
H     3.1187497    2.3610433   -4.7270993 
