48
 energy: -9.060445128090 gnorm: 0.000402544975 xtb: 6.6.0 (2ccbbd7)
C           -1.13543466647891       -3.47690196596796       -5.12053131039185
C            0.15433343240960       -3.22690939168059       -4.71454274533973
C           -2.13779188035626       -2.52477490331652       -4.93204996048822
C           -1.79463301725371       -1.31873391556046       -4.32223318358937
C           -0.50264830193543       -1.07854874410455       -3.92183027769198
C            0.49363358930118       -2.02396518938727       -4.11023974634623
H            0.91765076558050       -3.97045529189584       -4.86773029652085
H           -2.56637235238945       -0.58538507409468       -4.16980361470635
H           -0.25138614856753       -0.15495643775640       -3.43121126017803
H           -1.38439199405865       -4.41172383507185       -5.59004250861466
C            1.90520622320410       -1.76017743017810       -3.67559500879415
C            2.08613948364106       -1.54946889587101       -2.15344231747042
H            2.27763922085177       -0.88006843292118       -4.20951443525440
H            2.53332646725356       -2.59378994706915       -4.00828920652810
C            1.99753576593969       -0.08299256211585       -1.77067803727874
O           -3.44316184537385       -2.74685912299604       -5.32772080780837
H           -3.52355099203891       -3.63513492806177       -5.73799987619513
O            1.05267928736818        0.57194184040951       -2.16404971887959
N            1.12799998997638       -2.31006334798847       -1.36791577834088
H            3.09052264192538       -1.88928027783234       -1.85186669378836
H            0.21770246928501       -1.87956667254464       -1.45908603255970
H            1.05706628986931       -3.25912989734422       -1.71395592824754
N            3.01900278028532        0.46752967766248       -0.94771027769706
C            4.07820458976215        1.33221049409757       -1.52844150420280
H            2.68859107274798        0.99113145629068       -0.13311942210422
C            3.65398347812237        2.77286438687392       -1.48848289630278
O            4.58957106364942        3.73251410886395       -1.23255644158372
O            2.33380995369347        3.07098985120702       -1.72699507219923
H            1.82603030462380        2.23323299014105       -1.88759264224649
C            4.47649783662102        0.89253728103467       -2.95038945512998
H            4.95714448839441        1.21743592388360       -0.87669423019814
C            5.93054390552080        1.02636971489643       -3.27902563916146
H            3.87773467365479        1.44434796934601       -3.68184556994206
H            4.20439915116328       -0.15935323157155       -3.07697768895660
C            6.84528416913836        2.04772757959932       -2.87959821676385
C            6.71843364039023        3.19677522736555       -2.08998605848160
C            7.80483656254050        3.99371098796728       -1.88721491772278
C            9.04937699372614        3.67816554800384       -2.45649176382368
C            9.20591119402228        2.56296641698241       -3.23331551350617
C            8.09606700888437        1.73591879214729       -3.45108204058798
H            5.61596710428512        3.47305157162738       -1.62443704679640
H            7.70314106803150        4.88091044626290       -1.28468900781813
H            9.89084554874667        4.32720783644580       -2.27922426187115
H           10.15311348398322        2.31215062719470       -3.67599331329444
N            7.94108586950871        0.57061109055306       -4.17849349406300
C            6.63689508712320        0.15561348192372       -4.07287622047131
H            8.68412823439545        0.11257135476171       -4.70937678810869
H            6.23301034791104       -0.72581508033786       -4.54410096340272
