48
Energy =
C     0.1852775   -0.1482026    4.0205305 
C     0.7721464   -0.2390936    2.8004434 
C    -0.1471117    1.0678424    4.5302656 
C     0.1108618    2.1858722    3.8142326 
C     0.6978384    2.1011874    2.5936179 
C     1.0291930    0.8857076    2.0773114 
H     1.0355447   -1.2179401    2.4072982 
H    -0.1581101    3.1499700    4.2319863 
H     0.8987171    3.0127020    2.0354841 
H    -0.0159749   -1.0503347    4.5878747 
C     1.7023271    0.7846713    0.7264779 
C     3.2286745    0.5664852    0.8622828 
H     1.4936599    1.6974539    0.1239469 
H     1.2510972   -0.0630203    0.1623143 
C     3.8801253    0.2034640   -0.4670662 
O    -0.7517603    1.1963614    5.7849608 
H    -0.9134658    0.3136743    6.2573191 
O     4.4235595   -1.0659053   -0.6140921 
N     3.8815709    1.7300170    1.4928529 
H     3.4004000   -0.3365726    1.4997057 
H     3.3819963    2.6199840    1.2506124 
H     3.7950786    1.6428699    2.5332815 
N     3.8147723    1.0444811   -1.6313779 
C     4.7696429    2.1783552   -1.5854470 
H     2.8281750    1.3432586   -1.8004493 
C     4.1437451    3.4958460   -1.1238350 
O     2.7642039    3.6665004   -1.1175724 
O     4.9374436    4.5583093   -0.6913628 
H     5.9200048    4.3312135   -0.7000484 
C     5.4235842    2.3163265   -2.9773668 
H     5.5871289    1.9691219   -0.8537857 
C     4.4070703    2.5562036   -4.0748360 
H     5.9738819    1.3739817   -3.2014456 
H     6.1839778    3.1266846   -2.9783244 
C     3.9515260    3.7388493   -4.5189725 
C     4.2796060    5.0002990   -4.1378406 
C     3.6524776    6.0465950   -4.7481208 
C     2.7180504    5.8202324   -5.7204109 
C     2.4033112    4.5453609   -6.0861517 
C     3.0370507    3.5271533   -5.4672360 
H     5.0115169    5.1850500   -3.3583925 
H     3.8915526    7.0653433   -4.4534405 
H     2.2194449    6.6591570   -6.1986498 
H     1.6600709    4.3472674   -6.8504882 
N     2.8467650    2.1374513   -5.6890253 
C     3.7665533    1.5799332   -4.7412993 
H     2.2095310    1.6552848   -6.3627276 
H     3.9030219    0.5144960   -4.5636394 
