48
Energy =
C    -2.0972562   -1.4669462   -1.2301068 
C    -0.9786574   -2.0049958   -0.6814976 
C    -2.5099519   -0.2246694   -0.8614032 
C    -1.7975260    0.4724715    0.0526527 
C    -0.6790075   -0.0610525    0.6052712 
C    -0.2666725   -1.3081760    0.2464298 
H    -0.6573110   -2.9963945   -0.9907264 
H    -2.1325008    1.4653523    0.3331049 
H    -0.1135925    0.5201616    1.3306789 
H    -2.6595835   -2.0319087   -1.9658691 
C     0.9973313   -1.8957140    0.8357984 
C     2.2235373   -1.6190615   -0.0603717 
H     0.8672359   -2.9926684    0.9649513 
H     1.1774483   -1.4830039    1.8549170 
C     2.5051454   -0.1290844   -0.1784724 
O    -3.6581591    0.3579275   -1.4066992 
H    -4.1312185   -0.2230455   -2.0902059 
O     2.7356300    0.6378271    0.9598718 
N     3.3978662   -2.3355679    0.4622151 
H     2.0138768   -1.9914730   -1.0902631 
H     3.6049938   -2.0109903    1.4385548 
H     3.1996009   -3.3628625    0.5066091 
N     2.5271255    0.5043758   -1.4615827 
C     3.8251867    1.0355491   -1.9137525 
H     1.6398470    0.5833927   -2.0105316 
C     3.6354038    2.1835666   -2.9034084 
O     2.6691449    2.0779901   -3.8983289 
O     4.4599343    3.3096214   -2.8918587 
H     5.1751534    3.2563776   -2.1819780 
C     4.6364580   -0.1207727   -2.5336834 
H     4.3765782    1.4526832   -1.0379763 
C     6.0610130    0.2906534   -2.8322223 
H     4.1317940   -0.4938392   -3.4522770 
H     4.6603256   -0.9786056   -1.8242588 
C     6.5376082    0.7962092   -3.9818689 
C     5.9037435    1.0416418   -5.1576749 
C     6.6251179    1.5779960   -6.1832678 
C     7.9538136    1.8578711   -6.0214905 
C     8.5689646    1.6052030   -4.8314421 
C     7.8340506    1.0741886   -3.8317131 
H     4.8460256    0.8324440   -5.2880204 
H     6.1375134    1.7912233   -7.1316306 
H     8.5199861    2.2897520   -6.8429225 
H     9.6203396    1.8274972   -4.6843581 
N     8.2749903    0.7526705   -2.5198782 
C     7.0634547    0.2567771   -1.9369322 
H     9.2255433    0.8523523   -2.0954857 
H     6.9711758   -0.0860059   -0.9086693 
