48
Energy =
C    -4.1290211    0.7063526   -2.2206969 
C    -3.0466964    1.2743921   -1.6314435 
C    -4.2639437    0.7342729   -3.5734841 
C    -3.3136395    1.3317332   -4.3278471 
C    -2.2289271    1.9011905   -3.7438557 
C    -2.0903993    1.8781550   -2.3901093 
H    -2.9508183    1.2405066   -0.5493249 
H    -3.4337294    1.3476127   -5.4056302 
H    -1.4751957    2.3767473   -4.3659815 
H    -4.8852756    0.2290542   -1.6071118 
C    -0.8720750    2.4965100   -1.7409759 
C     0.3742269    1.5854409   -1.8434462 
H    -1.0734632    2.7405820   -0.6728255 
H    -0.6613445    3.4721977   -2.2347893 
C     1.6198515    2.3201425   -1.3886743 
O    -5.3653486    0.1561778   -4.2127131 
H    -6.0374573   -0.2621997   -3.5788205 
O     1.6387509    2.9370003   -0.1416698 
N     0.1915965    0.3515673   -1.0597897 
H     0.5473788    1.3214675   -2.9124690 
H    -0.0699821    0.6035225   -0.0760561 
H    -0.5998146   -0.2038032   -1.4607385 
N     2.8714557    2.0477226   -2.0281519 
C     3.7667872    1.1062102   -1.3360736 
H     3.1166109    2.5152010   -2.9310774 
C     5.1855704    1.6611625   -1.2775994 
O     6.1577364    1.2164031   -2.1659073 
O     5.5255890    2.6604729   -0.3670643 
H     4.7063719    3.0379814    0.0914056 
C     3.6638948   -0.2688388   -2.0361781 
H     3.4643045    1.0001791   -0.2659387 
C     4.0914541   -1.3987008   -1.1244483 
H     4.2402707   -0.2662517   -2.9865542 
H     2.6061733   -0.4506242   -2.3290147 
C     5.2497390   -2.0802051   -1.1448793 
C     6.3185546   -1.9690414   -1.9756418 
C     7.3852852   -2.7950419   -1.7759576 
C     7.3684375   -3.7134242   -0.7634486 
C     6.2839571   -3.8113758    0.0561124 
C     5.2415300   -2.9819412   -0.1601104 
H     6.3417653   -1.2424927   -2.7812517 
H     8.2552477   -2.7180816   -2.4240654 
H     8.2242291   -4.3660442   -0.6099935 
H     6.2545645   -4.5338600    0.8645310 
N     4.0270129   -2.9245177    0.5744049 
C     3.3392626   -1.8733475   -0.1151094 
H     3.7216829   -3.4986547    1.3935799 
H     2.3469998   -1.5083776    0.1469173 
