48
Energy =
C     0.1502944   -2.8648036   -1.8157061 
C    -0.0997418   -1.6460768   -1.2749661 
C    -0.4264004   -3.2210913   -2.9931524 
C    -1.2612168   -2.3593776   -3.6150014 
C    -1.5130806   -1.1380979   -3.0801067 
C    -0.9207674   -0.7629790   -1.9105492 
H     0.3634834   -1.3900308   -0.3294873 
H    -1.7195017   -2.6575254   -4.5510778 
H    -2.1824588   -0.4617484   -3.6025533 
H     0.8173328   -3.5504924   -1.3049293 
C    -1.1800761    0.6185373   -1.3266208 
C    -0.0545180    1.6539921   -1.6191220 
H    -1.3343786    0.5272035   -0.2286454 
H    -2.1376032    1.0196417   -1.7210939 
C     1.2230695    1.3592975   -0.7968013 
O    -0.1772348   -4.4632965   -3.5859291 
H     0.4520657   -5.0518772   -3.0511490 
O     1.0831250    0.7943475    0.4746994 
N     0.1862086    1.7726616   -3.0930805 
H    -0.4092861    2.6344251   -1.2218276 
H    -0.6323715    1.4062632   -3.6333012 
H     0.1378511    2.7884699   -3.3483415 
N     3.4422445    2.1504932   -1.4319578 
C     4.5819622    1.5143625   -0.6994761 
H     3.5429283    3.1819340   -1.6404749 
C     5.8982458    1.6986087   -1.4571989 
O     6.5422954    0.6054629   -2.0268581 
O     6.4980293    2.9529831   -1.5675100 
H     5.9273627    3.6782406   -1.1613715 
C     4.2909027    0.0125132   -0.3959064 
H     4.7262101    2.0301532    0.2754095 
C     3.8710214   -0.7737713   -1.6257118 
H     3.4768780   -0.0595510    0.3561869 
H     5.1911305   -0.4571833    0.0589666 
C     3.0012884   -0.3479872   -2.5315758 
C     2.3583308    0.8181966   -2.4986852 
C     1.4495351    1.2169880   -3.6379246 
C     1.2166347    0.0377340   -4.5929229 
C     1.9262093   -1.1158140   -4.4775997 
C     2.8126361   -1.2599806   -3.4722463 
H     2.4263241    2.4889550   -0.1016217 
H     2.0089027    2.0045151   -4.2085028 
H     0.5058126    0.1467458   -5.4073445 
H     1.7736433   -1.9281167   -5.1812675 
N     3.6017846   -2.4134470   -3.1887781 
C     4.2590479   -2.0122553   -1.9727657 
H     3.6711131   -3.3116429   -3.7223345 
H     4.9722142   -2.6230951   -1.4240546 
