48
Energy =
C     1.2759916   -1.7084531    4.2399587 
C     1.6479100   -0.6658076    3.4525463 
C    -0.0402286   -1.9451800    4.4831245 
C    -0.9761023   -1.1362064    3.9378295 
C    -0.6098759   -0.0939617    3.1496999 
C     0.7071651    0.1479211    2.8991405 
H     2.7045033   -0.4854184    3.2668769 
H    -2.0229480   -1.3347934    4.1405074 
H    -1.3789200    0.5426436    2.7203073 
H     2.0329284   -2.3533445    4.6740673 
C     1.1130803    1.3081785    2.0085015 
C     1.3048235    0.9333207    0.5128362 
H     2.0491549    1.7725326    2.3937812 
H     0.3458032    2.1109354    2.0735010 
C     2.6045061    0.1990338    0.2116738 
O    -0.4566065   -3.0101790    5.2877899 
H     0.3032671   -3.5704410    5.6580649 
O     3.5943489    0.0568645    1.1808977 
N     0.1400313    0.1997587   -0.0114469 
H     1.3932434    1.8887814   -0.0554956 
H     0.0546500   -0.7290858    0.4647804 
H    -0.7329353    0.7433529    0.1823205 
N     2.9449340   -0.0936974   -1.1458472 
C     4.1399428    0.5839342   -1.6765042 
H     2.3758865   -0.7974848   -1.6666147 
C     3.8811552    2.0791809   -1.8464496 
O     3.2525631    2.5520164   -2.9928821 
O     4.1856605    2.9894175   -0.8327658 
H     4.5285890    2.5296760    0.0000784 
C     4.5683356   -0.1034015   -2.9924057 
H     4.9740594    0.4779186   -0.9437901 
C     5.9449468    0.3446886   -3.4378025 
H     3.8080874    0.0789117   -3.7831260 
H     4.5960426   -1.2043682   -2.8340301 
C     6.2481391    1.2245440   -4.4083421 
C     5.4367084    1.9171055   -5.2493095 
C     6.0085325    2.7604840   -6.1558471 
C     7.3676274    2.8968972   -6.2116266 
C     8.1637014    2.1908695   -5.3600530 
C     7.5745061    1.3637706   -4.4709994 
H     4.3567906    1.8187598   -5.2092632 
H     5.3779178    3.3310792   -6.8335497 
H     7.8146789    3.5738483   -6.9352576 
H     9.2434658    2.2892227   -5.3893267 
N     8.2191657    0.5482927   -3.5031223 
C     7.0927463   -0.0756565   -2.8760729 
H     9.2395569    0.4330487   -3.3057611 
H     7.1640363   -0.7831774   -2.0531557 
