48
 energy: -9.068970249039 gnorm: 0.000286821672 xtb: 6.6.0 (2ccbbd7)
C           -1.16223253952824       -1.99475196740144       -3.36616001664761
C           -0.96952125771511       -1.64207833189271       -2.05079110052491
C           -0.07771245511968       -2.31892850390335       -4.18266504177250
C            1.20141527880569       -2.27429806815107       -3.62958529072846
C            1.38378441822791       -1.91954886539715       -2.31520132650751
C            0.30456774132361       -1.60357767606906       -1.50317942429048
H           -1.81359092657558       -1.38885170174966       -1.43248668664372
H            2.03939112051922       -2.51656774269376       -4.25835745772795
H            2.37614778796406       -1.85806471758051       -1.90263549681899
H           -2.15413220652129       -2.02236187562726       -3.78036572781771
C            0.52435128469347       -1.17903310015815       -0.08334383394932
C            0.93089033890409        0.29538258962653        0.04515320917370
H            1.30610060913755       -1.80692671330167        0.35712825393843
H           -0.38337289864055       -1.36772976427496        0.49841358217901
C            2.25717395430255        0.55112798341381       -0.63733739464602
O           -0.23740863603756       -2.67334014314402       -5.50908089384118
H           -1.18904922988652       -2.65312887531473       -5.74959912587013
O            3.13332163086941       -0.28901278462505       -0.58992516289275
N           -0.09437583324750        1.18450686920034       -0.48633229422534
H            1.06812448551830        0.54726642950137        1.10904692109927
H           -0.21334535273801        0.99751615610139       -1.47313402261922
H           -0.98470935407401        1.00748536407629       -0.03894382386198
N            2.40475150873187        1.75060875174893       -1.29264917032168
C            3.69165911729115        2.14412060850205       -1.85980943346332
H            1.74128299167015        2.51375286716979       -1.11256476913324
C            3.59786611811876        3.51743682199555       -2.45571830468069
O            4.66222021236499        4.36354474674784       -2.34080858595560
O            2.44003037739416        3.84938013533258       -3.11912136533638
H            1.81572198148760        3.08615585729279       -3.10751617101081
C            4.18441074313183        1.11451688728198       -2.89445266531237
H            4.39940087465371        2.16980045899865       -1.01842498551924
C            5.66365261567494        0.89294981053516       -2.91556247025971
H            3.83619836844881        1.40096900016350       -3.89165773900476
H            3.70210591357791        0.15644733664256       -2.67383973604200
C            6.70975407200309        1.84623834706582       -2.72325360431904
C            6.72265488202681        3.21917263362415       -2.44633428211190
C            7.91567682137418        3.86141003798563       -2.30233708558251
C            9.13052166196262        3.16744218924416       -2.42492217027061
C            9.15156000038133        1.82657490018157       -2.69521199143718
C            7.93194575756424        1.15399915836863       -2.84692667145967
H            5.65425302043485        3.82138985831767       -2.36909368182594
H            7.92392999904086        4.91838115162337       -2.09438676644642
H           10.05831661668166        3.70189254781473       -2.30534201853568
H           10.07511972447486        1.28459002821489       -2.79187044278455
N            7.63490667832813       -0.16946038568964       -3.11440326374778
C            6.27087786497620       -0.31594333335755       -3.15310653274671
H            8.32917782455400       -0.90793877224887       -3.24279999754297
H            5.75761035035880       -1.24590332306092       -3.33771604369086
