48
Energy =
C    -1.0119165    3.8132409   -6.6210778 
C    -0.4337587    2.9062583   -5.7941404 
C    -1.7163873    4.8561684   -6.1062433 
C    -1.8360435    4.9847083   -4.7652447 
C    -1.2593467    4.0808828   -3.9330932 
C    -0.5558094    3.0334763   -4.4436555 
H     0.1293837    2.0810476   -6.2220486 
H    -2.3993797    5.8217614   -4.3674184 
H    -1.3666995    4.2018050   -2.8579433 
H    -0.9083280    3.7023218   -7.6948973 
C     0.0974513    2.0343791   -3.5149874 
C     1.4011779    2.5874778   -2.8804305 
H     0.3126539    1.0809616   -4.0469393 
H    -0.6314310    1.7752712   -2.7118116 
C     1.8319475    1.7202000   -1.7216838 
O    -2.3257475    5.8077050   -6.9306947 
H    -2.1855777    5.6440586   -7.9216245 
O     1.0942112    1.7368937   -0.5449094 
N     2.4777229    2.7011213   -3.8884394 
H     1.2161302    3.5897042   -2.4272389 
H     2.6203904    1.7637847   -4.3347188 
H     2.1149461    3.2799565   -4.6844081 
N     2.7459759    0.6444369   -1.9450873 
C     4.1617347    0.9749037   -2.2113129 
H     2.3647012   -0.3270118   -1.9773450 
C     4.4328001    2.4561536   -2.5940144 
O     3.5897091    3.2408024   -3.4345651 
O     5.5927480    3.0841005   -2.1301573 
H     6.1914701    2.4669152   -1.6033556 
C     4.7172875   -0.0147250   -3.2609364 
H     4.7064645    0.7970860   -1.2584694 
C     6.2139116    0.1207583   -3.4362553 
H     4.2049368    0.1188742   -4.2360800 
H     4.4945467   -1.0554645   -2.9365556 
C     6.8591356    0.9024348   -4.3178953 
C     6.3662033    1.7353271   -5.2707968 
C     7.2489915    2.4368279   -6.0376032 
C     8.5954891    2.2979541   -5.8437775 
C     9.0676271    1.4583823   -4.8790293 
C     8.1743130    0.7749248   -4.1331132 
H     5.2976950    1.8611740   -5.4188926 
H     6.8783119    3.1173810   -6.8002693 
H     9.2917180    2.8655257   -6.4559709 
H    10.1322946    1.3430018   -4.7071958 
N     8.4540263   -0.1302424   -3.0739893 
C     7.1295138   -0.5031785   -2.6743780 
H     9.3776816   -0.4381081   -2.6920356 
H     6.9045879   -1.1872252   -1.8596695 
