48
Energy =
C     2.4000721    4.8423105   -2.2812314 
C     1.4934947    4.0125062   -1.7057655 
C     3.4222569    5.3538447   -1.5448421 
C     3.5305867    5.0292138   -0.2370401 
C     2.6238179    4.2054940    0.3448428 
C     1.6001695    3.6847866   -0.3875053 
H     0.6830268    3.6101814   -2.3085024 
H     4.3522244    5.4384071    0.3386729 
H     2.7251402    3.9662109    1.3994196 
H     2.3040687    5.0962638   -3.3310540 
C     0.5778319    2.7691694    0.2584478 
C     1.0138838    1.2828445    0.3384177 
H    -0.3796010    2.8249249   -0.3068667 
H     0.3413626    3.1406487    1.2789378 
C     1.3126665    0.6599554   -1.0193709 
O     4.3669315    6.2208619   -2.1051417 
H     4.2342879    6.3879513   -3.0961659 
O     0.5126678    1.0052205   -2.1057369 
N     2.1280707    1.1088128    1.2874893 
H     0.1440770    0.7023317    0.7190593 
H     3.0043066    1.5347637    0.9014412 
H     1.9149548    1.5841903    2.1949377 
N     1.9686188   -0.6138877   -1.0674879 
C     3.2006593   -0.6243079   -1.8933178 
H     1.2659379   -1.2947029   -1.4300450 
C     4.2557168    0.3731271   -1.4103924 
O     5.3412700   -0.0951435   -0.6808579 
O     4.1996430    1.7347356   -1.7103051 
H     3.3600263    1.9817858   -2.2090324 
C     2.9111595   -0.5049961   -3.4167881 
H     3.6901988   -1.6100106   -1.7243322 
C     2.2526316   -1.7528968   -3.9719284 
H     3.8745664   -0.3661387   -3.9575245 
H     2.3140216    0.4020164   -3.6377711 
C     0.9881691   -1.8974151   -4.4133009 
C    -0.0235756   -0.9946426   -4.5023998 
C    -1.2261564   -1.4108372   -4.9957054 
C    -1.3986321   -2.7067340   -5.3925848 
C    -0.3704892   -3.5954261   -5.3000328 
C     0.8083428   -3.1614932   -4.8074981 
H     0.1028052    0.0371159   -4.1937043 
H    -2.0536684   -0.7082347   -5.0721585 
H    -2.3604127   -3.0308114   -5.7841630 
H    -0.4908875   -4.6277508   -5.6126915 
N     1.9933067   -3.9242898   -4.6363717 
C     2.8787628   -2.9380511   -4.0937842 
H     2.1707362   -4.9337748   -4.8503541 
H     3.9147731   -3.1299109   -3.8192609 
