48
Energy =
C     1.4671953    5.6697290    0.4356964 
C     0.9304191    4.6846059   -0.3292794 
C     2.3972867    6.5119447   -0.0876977 
C     2.7934949    6.3545787   -1.3706812 
C     2.2546271    5.3774493   -2.1424310 
C     1.3131617    4.5372579   -1.6292020 
H     0.2026449    4.0057311    0.1114602 
H     3.5567147    7.0136335   -1.7689451 
H     2.6031838    5.2594484   -3.1646202 
H     1.1557428    5.7794264    1.4690985 
C     0.7120643    3.4397338   -2.4891721 
C     1.6163770    2.1853816   -2.5786595 
H     0.5334390    3.8383487   -3.5117167 
H    -0.2871586    3.1459082   -2.0954529 
C     1.8963877    1.5842013   -1.2069814 
O     2.9500860    7.5515284    0.6673198 
H     2.6637173    7.5502415    1.6398354 
O     0.8899410    1.5702169   -0.2457894 
N     1.0011676    1.1893146   -3.4781244 
H     2.6081944    2.4816950   -2.9903664 
H     0.0751317    0.8833292   -3.0891836 
H     0.8274721    1.6089964   -4.4221694 
N     3.0448348    0.7541813   -0.9875725 
C     4.4091437    1.3288210   -1.0204149 
H     2.8764027   -0.2668010   -0.8483731 
C     4.4312113    2.8577924   -0.9766879 
O     4.6280955    3.5851496   -2.1454794 
O     4.1373788    3.5534971    0.1907901 
H     3.9035873    2.9278350    0.9483667 
C     5.1669236    0.7769243   -2.2481472 
H     4.9511404    1.0044889   -0.1042029 
C     5.3929175   -0.7156675   -2.1529799 
H     6.1565542    1.2819364   -2.3302727 
H     4.6213850    1.0294935   -3.1816655 
C     4.6231531   -1.6874849   -2.6696175 
C     3.4859398   -1.6012399   -3.4071793 
C     2.8810396   -2.7572302   -3.8039567 
C     3.4148489   -3.9688168   -3.4617899 
C     4.5563186   -4.0314618   -2.7188909 
C     5.1365824   -2.8736495   -2.3389517 
H     3.0554767   -0.6411740   -3.6737672 
H     1.9680578   -2.7139048   -4.3927923 
H     2.9260306   -4.8857967   -3.7805951 
H     4.9904822   -4.9840287   -2.4351800 
N     6.3115811   -2.7188598   -1.5555797 
C     6.4033433   -1.2904402   -1.4777671 
H     6.9368401   -3.4500456   -1.1460649 
H     7.1795837   -0.7523381   -0.9385762 
