48
Energy =
C    -2.4121562    4.8398456   -0.6271671 
C    -2.3999121    3.9977616   -1.6948792 
C    -1.4071031    4.7967360    0.2922008 
C    -0.3972878    3.9100023    0.1369940 
C    -0.3929266    3.0733845   -0.9286759 
C    -1.3761258    3.1159203   -1.8559836 
H    -3.2151166    4.0338687   -2.4124874 
H     0.4011508    3.8789602    0.8695123 
H     0.4425742    2.2840099   -1.1767048 
H    -3.2292289    5.5431173   -0.5078952 
C    -1.3608021    2.1150765   -3.0022103 
C     0.0486072    1.8725954   -3.6312831 
H    -2.0501968    2.4669509   -3.8009086 
H    -1.7662240    1.1488614   -2.6286669 
C     1.0226372    1.1202521   -2.7086679 
O    -1.3896121    5.6490772    1.4007320 
H    -2.1795786    6.2833492    1.4433561 
O     1.2313651    1.5463205   -1.3940279 
N    -0.1142562    1.1568466   -4.9074563 
H     0.5422597    2.8558836   -3.8280189 
H    -0.6844986    0.2905996   -4.7611843 
H    -0.6223708    1.7627602   -5.5940020 
N     2.0043058    0.2501927   -3.2761110 
C     3.4099960    0.6707685   -3.1451250 
H     1.6928695   -0.6347732   -3.7352925 
C     3.6517063    2.0161875   -3.8347329 
O     3.9747042    2.0654933   -5.1857449 
O     3.4898029    3.2222135   -3.1504546 
H     3.1519149    3.0665589   -2.2105077 
C     4.3271404   -0.4522599   -3.6796693 
H     3.6352884    0.8070902   -2.0632522 
C     5.7841717   -0.1980444   -3.3512868 
H     4.1740337   -0.5779381   -4.7733510 
H     4.0299589   -1.4160513   -3.2100611 
C     6.7561604    0.2058193   -4.1879950 
C     6.7130155    0.4729941   -5.5193945 
C     7.8601264    0.8726355   -6.1390734 
C     9.0222044    0.9958600   -5.4298774 
C     9.0443531    0.7206160   -4.0953784 
C     7.8964530    0.3282625   -3.5038829 
H     5.7945003    0.3822799   -6.0903578 
H     7.8473894    1.0986656   -7.2026019 
H     9.9312034    1.3174801   -5.9318789 
H     9.9578377    0.8148223   -3.5180995 
N     7.7092437   -0.0032258   -2.1353000 
C     6.3146695   -0.3316166   -2.1220511 
H     8.4037701   -0.0078569   -1.3531907 
H     5.7653293   -0.6416831   -1.2358134 
