48
 energy: -9.073625218187 gnorm: 0.000637529722 xtb: 6.6.0 (2ccbbd7)
C           -4.51916564453644        2.37867388301913       -1.05632987318326
C           -3.19700955865520        2.75379216315175       -1.01815636062046
C           -5.02509720092486        1.66997923265924       -2.14657076072725
C           -4.15557721237385        1.35452547349979       -3.19034476696898
C           -2.83465293537895        1.73184499611460       -3.14419940480676
C           -2.33627124833858        2.43980103184546       -2.06067273773161
H           -2.81585185435506        3.29481477465432       -0.16891447848852
H           -4.54473748987166        0.80663791607219       -4.02978773400890
H           -2.17127818101758        1.47556425650920       -3.95243842000226
H           -5.17743568436723        2.62757080589573       -0.24326685314478
C           -0.88491778603187        2.79868276309316       -1.99058687531151
C            0.00599926188359        1.61490595321582       -1.60516900677789
H           -0.73481518925853        3.59866880707587       -1.25929302772643
H           -0.55891905876090        3.21321002111720       -2.95025285234832
C            1.44640979996203        2.05414717192811       -1.53582609480165
O           -6.34848461585808        1.27697705319705       -2.21485782652677
H           -6.82746455453587        1.57251633261554       -1.41045078594808
O            1.75406393045561        2.88437553950654       -0.70563580570209
N           -0.36910166194017        1.03607942286143       -0.32510428151289
H           -0.08850885595797        0.82636925422800       -2.36679224371895
H           -0.08974391009503        1.67603853778667        0.40660990326089
H           -1.37230519687043        0.91402089968167       -0.26900171161031
N            2.34679572256057        1.51149697487758       -2.42424518021957
C            3.75527714240315        1.89431690691552       -2.43415822754669
H            2.04159585071503        0.93185764836743       -3.20745775999981
C            3.91861754228844        3.17350138538542       -3.21382403427361
O            4.69865677683374        3.22778154624477       -4.34219821813982
O            3.23222975556453        4.25538884452727       -2.71395408309499
H            2.68090719933672        3.92541583359867       -1.96434966179141
C            4.64032521079257        0.74034015940478       -2.93177969362690
H            4.01974190389837        2.10278969816852       -1.38678214200082
C            6.06133979067129        0.81085900292923       -2.47114468089977
H            4.60759954039662        0.71256139542791       -4.02519281252419
H            4.20780975540135       -0.20781829036138       -2.59541094098508
C            7.02537687669207        1.78442103670811       -2.85739292089870
C            6.94049839399658        2.90316063441960       -3.68848087414863
C            8.04405174894826        3.68042113638657       -3.87245066162308
C            9.25891911191001        3.36221011709798       -3.24019718542024
C            9.36659029893779        2.27321177205331       -2.41620516598159
C            8.23639059972166        1.46910954974957       -2.21380984230030
H            5.79981459838574        3.11582789999516       -4.09866576356606
H            7.97718676822969        4.55262021566189       -4.50080023396567
H           10.11705822216513        3.99299732322415       -3.40233559570269
H           10.29024795396914        2.02806037890096       -1.92352911809702
N            8.00828011728170        0.33566015249098       -1.45260563569902
C            6.69803259853985       -0.05088349829855       -1.61124382578901
H            8.70956466328271       -0.12350133587482       -0.86856769535906
H            6.24611625136447       -0.90426242889091       -1.13217493247726
