48
Energy =
C    -2.2683987    2.4439992   -3.3594830 
C    -1.4400294    1.6219711   -4.0525189 
C    -2.6363288    2.1304882   -2.0881530 
C    -2.1694136    0.9970597   -1.5175402 
C    -1.3409477    0.1718450   -2.2055000 
C    -0.9776206    0.4757840   -3.4822124 
H    -1.1451276    1.8909005   -5.0638684 
H    -2.4629239    0.7628601   -0.5002579 
H    -0.9608260   -0.7268536   -1.7247032 
H    -2.6316379    3.3548680   -3.8231781 
C    -0.0274970   -0.4243856   -4.2423663 
C     1.4360011    0.0426457   -4.1012450 
H    -0.3113939   -0.4361880   -5.3173808 
H    -0.1173095   -1.4748805   -3.8848336 
C     1.8931932    0.0167442   -2.6516355 
O    -3.4891758    2.9542432   -1.3465712 
H    -3.7806205    3.7921517   -1.8381816 
O     1.8500221   -1.1656396   -1.9158470 
N     2.3082266   -0.7911301   -4.9472793 
H     1.5162217    1.1058676   -4.4359197 
H     2.2208565   -1.7972191   -4.6609122 
H     2.0039893   -0.7208851   -5.9473234 
N     2.3011315    1.2294832   -2.0006808 
C     3.7563625    1.5493929   -2.0661322 
H     2.0040747    1.1340361   -1.0018430 
C     3.9325008    3.0062595   -2.4913685 
O     4.2320393    3.3172172   -3.8143327 
O     3.7820322    4.0512460   -1.5817713 
H     3.4163937    3.7264351   -0.6997724 
C     4.5909181    0.5874119   -2.9672467 
H     4.1851739    1.4853011   -1.0389198 
C     6.0783121    0.8385979   -2.8327133 
H     4.2768321    0.7045205   -4.0311513 
H     4.3948612   -0.4746816   -2.7027039 
C     6.8843699    0.3622536   -1.8709291 
C     6.6007616   -0.4558278   -0.8245260 
C     7.6115421   -0.7904634    0.0279447 
C     8.8745635   -0.3061389   -0.1738900 
C     9.1345685    0.5164855   -1.2296596 
C     8.1187048    0.8308382   -2.0604820 
H     5.5975548   -0.8394805   -0.6593421 
H     7.4115718   -1.4447536    0.8734043 
H     9.6743479   -0.5759685    0.5114218 
H    10.1296242    0.9131078   -1.4012286 
N     8.1718047    1.6751332   -3.2013192 
C     6.8058266    1.6326708   -3.6396450 
H     8.9877565    2.1839937   -3.6130307 
H     6.4085505    2.1964939   -4.4847768 
