48
Energy =
C     2.0339244    0.4062009    4.3734503 
C     1.4268644    0.4911921    3.1611157 
C     2.3054625   -0.8092332    4.9174811 
C     1.9670104   -1.9321935    4.2454476 
C     1.3627708   -1.8527855    3.0330178 
C     1.0907355   -0.6380369    2.4788651 
H     1.2189034    1.4701904    2.7346654 
H     2.1877506   -2.8960952    4.6910543 
H     1.1011738   -2.7689098    2.5105360 
H     2.3052968    1.3119338    4.9056862 
C     0.4226264   -0.5536268    1.1169041 
C     1.3997469   -0.4512935   -0.0902216 
H    -0.2826123    0.3074662    1.0984525 
H    -0.2160838   -1.4532324    0.9728834 
C     1.8588106    0.9701481   -0.3889117 
O     2.9296231   -0.9319878    6.1626168 
H     3.1594897   -0.0461094    6.5996854 
O     2.1653075    1.8597233    0.6331121 
N     2.5410715   -1.3713098    0.0442020 
H     0.8249822   -0.7542587   -0.9950732 
H     3.1447455   -1.0618740    0.8440527 
H     2.1955796   -2.3353630    0.2578559 
N     2.1745567    1.3530358   -1.7287058 
C     3.5997584    1.5355688   -2.0451973 
H     1.4139265    1.4567235   -2.4360497 
C     3.8343670    2.9235751   -2.6325840 
O     3.9479308    3.0964047   -4.0089185 
O     3.8762024    4.0509136   -1.8141505 
H     3.6195669    3.8216237   -0.8617773 
C     4.0416003    0.3890384   -2.9785188 
H     4.2181249    1.4982245   -1.1154675 
C     5.5464027    0.3439478   -3.1325755 
H     3.5571004    0.5008735   -3.9747932 
H     3.6875899   -0.5818592   -2.5660884 
C     6.4216812   -0.2211399   -2.2865656 
C     6.2005882   -0.8993928   -1.1316617 
C     7.2776426   -1.3710089   -0.4405635 
C     8.5452749   -1.1578571   -0.9078104 
C     8.7429911   -0.4710182   -2.0690754 
C     7.6607960   -0.0169193   -2.7355110 
H     5.1949921   -1.0651117   -0.7586274 
H     7.1270815   -1.9166413    0.4876503 
H     9.3988422   -1.5342767   -0.3498496 
H     9.7414925   -0.2880516   -2.4510049 
N     7.6462948    0.7282378   -3.9446287 
C     6.2372776    0.9277916   -4.1277837 
H     8.4453505    1.0408854   -4.5421555 
H     5.7945600    1.5028042   -4.9403753 
