48
Energy =
C    -0.5709118    4.8716039   -0.8849099 
C    -0.0863022    3.7035146   -1.3776823 
C     0.0787048    6.0402028   -1.1326128 
C     1.2113602    6.0325867   -1.8704446 
C     1.6981526    4.8696277   -2.3692353 
C     1.0560697    3.6925385   -2.1194700 
H    -0.6180830    2.7774143   -1.1701077 
H     1.7257463    6.9700712   -2.0543739 
H     2.6115466    4.8890360   -2.9602228 
H    -1.4802066    4.8686879   -0.2920785 
C     1.5845278    2.3791821   -2.6825115 
C     1.8287915    1.2784856   -1.5904279 
H     2.4985195    2.5301672   -3.3050648 
H     0.8093321    2.0318410   -3.4013330 
C     3.0776070    0.9298783   -0.7514964 
O    -0.3987106    7.2605449   -0.6483810 
H    -1.2307288    7.1813682   -0.0727679 
O     2.9137264    0.7456949    0.6235972 
N     1.5632630   -0.0101667   -2.2702329 
H     2.5713453    2.0191046   -1.2048540 
H     0.5298255   -0.1788812   -2.2860343 
H     1.9279719   -0.0400134   -3.2530538 
N     4.2932726    0.4142489   -1.3502191 
C     5.4501919    1.3475662   -1.4585022 
H     4.0823813   -0.1409278   -2.2038070 
C     5.1906537    2.8112371   -1.0744551 
O     4.2264451    3.5503951   -1.7426533 
O     5.9441503    3.4678944   -0.1061438 
H     6.5643989    2.8482231    0.3920697 
C     6.1488018    1.2217859   -2.8386122 
H     6.1930999    0.9795944   -0.7188998 
C     5.2889874    1.6502141   -4.0143952 
H     6.4648650    0.1650976   -2.9835898 
H     7.0883996    1.8167404   -2.8307070 
C     5.1861210    2.8828548   -4.5426096 
C     5.7931443    4.0426886   -4.1811739 
C     5.5069106    5.1740345   -4.8869851 
C     4.6344216    5.1298753   -5.9385199 
C     4.0421924    3.9537091   -6.2898104 
C     4.3387500    2.8490026   -5.5733425 
H     6.4735700    4.0839518   -3.3351214 
H     5.9742706    6.1152425   -4.6075134 
H     4.4154466    6.0355058   -6.4985952 
H     3.3528740    3.9004592   -7.1256574 
N     3.8358593    1.5366679   -5.7770281 
C     4.5071244    0.8218899   -4.7315549 
H     3.1477606    1.1938596   -6.4860921 
H     4.4201461   -0.2498093   -4.5697935 
