48
Energy =
C    -3.1105125   -1.5038944   -2.3949761 
C    -2.0004278   -0.7357721   -2.2630801 
C    -3.3592539   -2.5044417   -1.5060859 
C    -2.4894058   -2.7282549   -0.4932623 
C    -1.3776443   -1.9622461   -0.3592669 
C    -1.1309578   -0.9589555   -1.2420838 
H    -1.7976898    0.0580074   -2.9818689 
H    -2.6893027   -3.5283950    0.2066088 
H    -0.6788886   -2.1531601    0.4509298 
H    -3.7912383   -1.3137538   -3.2158240 
C     0.1054697   -0.1060246   -1.0986050 
C     0.0635560    0.8618538    0.1258108 
H     0.3201840    0.4830055   -2.0325263 
H     1.0140937   -0.7520564   -1.0458313 
C     1.4687860    1.3910079    0.4146379 
O    -4.4995072   -3.3151743   -1.6128990 
H    -5.0760002   -3.0786673   -2.4114725 
O     2.0155572    1.1571885    1.6897265 
N    -0.8883728    1.9663690   -0.1214168 
H    -0.2339177    0.3112859    1.0390130 
H    -0.4302500    2.6129221   -0.8198497 
H    -1.7345966    1.6023619   -0.6086829 
N     2.2964225    1.5511815   -0.7282254 
C     3.7418211    1.7141487   -0.6891188 
H     1.9068555    2.1204503   -1.5200610 
C     4.1079526    3.1319260   -1.1049626 
O     4.7413263    3.9858311   -0.2031004 
O     3.7419526    3.6077140   -2.3608330 
H     3.3624831    2.6454518   -2.9626153 
C     4.3207870    0.6243569   -1.6615017 
H     4.1339401    1.6524705    0.3265799 
C     3.4688154    0.3394047   -2.8716538 
H     4.5302862   -0.2728350   -1.1154328 
H     5.2696782    1.0303123   -2.0726034 
C     3.1495287   -0.8356815   -3.4195026 
C     3.4065421   -2.0974966   -2.9869945 
C     2.9645749   -3.1531366   -3.7352272 
C     2.2852942   -2.9273034   -4.8999086 
C     2.0532244   -1.6470244   -5.3138827 
C     2.5021471   -0.6213813   -4.5446408 
H     3.9448296   -2.2525815   -2.0641036 
H     3.1589169   -4.1642461   -3.3992285 
H     1.9353348   -3.7593379   -5.4987682 
H     1.5281668   -1.4319130   -6.2339763 
N     2.3736030    0.7629486   -4.8304503 
C     2.9358310    1.5190295   -3.6762528 
H     1.9246866    1.1664244   -5.6786149 
H     2.5727553    2.4013338   -4.2522822 
