48
Energy =
C     2.5801868    2.6362818    2.0537622 
C     1.5086548    2.3645119    1.2654401 
C     3.3045248    3.7709480    1.8568127 
C     2.9630764    4.6155606    0.8568183 
C     1.8908777    4.3509084    0.0687368 
C     1.1443895    3.2312296    0.2797236 
H     0.9507495    1.4423519    1.4198057 
H     3.5648838    5.5016682    0.6893620 
H     1.6434953    5.0354777   -0.7378664 
H     2.8598624    1.9427071    2.8394665 
C    -0.0640064    2.9416538   -0.5885707 
C     0.3282136    2.2957821   -1.9369823 
H    -0.6114003    3.8915015   -0.7766071 
H    -0.7780824    2.2749873   -0.0530667 
C     1.0343592    0.9616518   -1.7542751 
O     4.3939670    4.0959056    2.6732121 
H     4.6472891    3.3658195    3.3296981 
O     0.5846566    0.0608153   -0.7938140 
N    -0.8679251    2.1433739   -2.7846846 
H     1.0608248    2.9563479   -2.4581356 
H    -1.5595938    1.5131094   -2.3088249 
H    -1.3311464    3.0719319   -2.9269226 
N     1.9338079    0.4950825   -2.7633463 
C     3.3818918    0.6344841   -2.5059181 
H     1.5274666    0.1292407   -3.6529224 
C     3.7552825    2.0099146   -1.9218174 
O     4.2762708    2.0876780   -0.6381424 
O     3.5069761    3.1942975   -2.6287207 
H     3.3367604    2.8707952   -3.6758885 
C     4.1695627    0.2852161   -3.8022113 
H     3.6667444   -0.1069625   -1.7243383 
C     4.0047511    1.3008478   -4.9252499 
H     3.8604879   -0.7169779   -4.1703531 
H     5.2496647    0.2247843   -3.5380678 
C     4.8299943    1.4385308   -5.9682969 
C     5.7864463    0.5822562   -6.4131560 
C     6.5423358    0.9504389   -7.4856517 
C     6.3455922    2.1631238   -8.0822184 
C     5.3942755    3.0145480   -7.6062144 
C     4.6485016    2.6256133   -6.5486556 
H     5.9479265   -0.3795946   -5.9349391 
H     7.3095575    0.2790558   -7.8634461 
H     6.9574226    2.4554273   -8.9318305 
H     5.2421612    3.9899548   -8.0557372 
N     3.6643413    3.4125658   -5.8860572 
C     3.1469039    2.5371326   -4.8283909 
H     3.3627103    4.3854511   -6.1221557 
H     2.0769459    2.2934982   -4.9962102 
