48
 energy: -9.291096581380 gnorm: 0.000729153894 xtb: 6.6.0 (2ccbbd7)
C           -3.43366242201488       -1.92671753831592        0.02268659069987
C           -2.07721685256674       -1.93842209224724       -0.20195373721523
C           -3.97555185959516       -1.16458688704881        1.05832424298268
C           -3.10686150842518       -0.41621025147430        1.85206084445648
C           -1.75220507430325       -0.43238795488294        1.62050667945935
C           -1.21626563087380       -1.19807300245092        0.59551765100888
H           -1.67035629878535       -2.52663982069119       -1.00667895353287
H           -3.52458261012752        0.17400617978013        2.64810615761310
H           -1.09230782707899        0.15426475083837        2.23645366788432
H           -4.09184065067477       -2.50565428419954       -0.60008833383061
C            0.25521282724748       -1.17827269812873        0.32423913980282
C            0.69823537754338        0.04710884897635       -0.47655124274240
H            0.54733059266396       -2.07847052680242       -0.22468294767986
H            0.80715039876296       -1.22134332105139        1.26882515024508
C            2.18581578958418        0.04632078154419       -0.71252362829227
O           -5.33348227362538       -1.13333849917056        1.31298758995164
H           -5.80753636790673       -1.71409845522342        0.67935441811427
O            2.75712629843152       -1.01368476877581       -0.86329174305887
N            0.07030597859671        0.12414656505443       -1.78590679457482
H            0.43476034920609        0.95794937711141        0.08242387872432
H            0.30300806183286       -0.71654681915781       -2.29997441067477
H           -0.93616341034711        0.13922665937223       -1.68779532500799
N            2.77620885994421        1.29128202796448       -0.83832344096856
C            3.89840475764378        1.52825197392456       -1.74757567568226
H            2.18687508191936        2.12003212348642       -0.75917776737155
C            3.38861669160518        2.22041468630443       -2.99445441280963
O            4.13765590641669        3.00172618516583       -3.54120850788182
O            2.14805669552310        1.90655610464237       -3.45181949355825
H            1.61325748277681        1.31378255232124       -2.85233044077469
C            4.66917201282572        0.25504713397426       -2.10383130225010
H            4.58702392108441        2.21860387046491       -1.23875194045844
C            6.02292051615267        0.48317789651262       -2.68732886738360
H            4.06308476162558       -0.34184051935082       -2.79181251484328
H            4.76377019653372       -0.36084198407893       -1.20388587887607
C            6.33397554900609        0.82415266892425       -4.03775139598204
C            5.54097702839092        1.07583084257850       -5.17094465575227
C            6.15870962419470        1.39701482105152       -6.34746200335335
C            7.55826482109480        1.47308583808742       -6.43620661155510
C            8.35052247629249        1.23944076649412       -5.34566452022350
C            7.73646450384557        0.91497057532473       -4.12929215031335
H            4.46840719910619        1.07418675020368       -5.08211834806940
H            5.56205153529601        1.61204805951127       -7.21853634432575
H            8.01345219297658        1.73019505959270       -7.37843047056222
H            9.42241140740714        1.30460983758590       -5.40180045648881
N            8.25339811376056        0.64478253029021       -2.87480551796832
C            7.21531234033518        0.39325000064320       -2.01273544496887
H            9.24782253292260        0.65485186008025       -2.64028742918987
H            7.32597091256192        0.15475765220587       -0.96713536730214
