48
Energy =
C     0.2030347   -2.4727784   -0.8661291 
C     0.5647267   -1.6584262    0.1574718 
C    -0.4816563   -1.9725883   -1.9284843 
C    -0.8018943   -0.6596746   -1.9599672 
C    -0.4407855    0.1602041   -0.9408479 
C     0.2415004   -0.3369366    0.1293107 
H     1.1385939   -2.0691194    0.9859173 
H    -1.3399918   -0.2729268   -2.8195213 
H    -0.6797570    1.2210527   -0.9970707 
H     0.4761702   -3.5225102   -0.8390658 
C     0.7085301    0.5842717    1.2379088 
C     2.1865347    1.0157351    1.0424123 
H     0.5911704    0.0687933    2.2183984 
H     0.0599572    1.4905360    1.2903655 
C     2.3992145    1.6646164   -0.3046768 
O    -0.8614924   -2.7807446   -3.0026576 
H    -0.5710076   -3.7490695   -2.9154456 
O     1.6093314    2.7544085   -0.6426266 
N     2.5836076    1.9324066    2.1356397 
H     2.8664964    0.1138066    1.0043625 
H     2.0379958    2.8308646    2.0810381 
H     2.3922456    1.5071125    3.0756402 
N     2.9942448    0.9135471   -1.3659141 
C     4.4615409    0.7627353   -1.3569066 
H     2.3724191    0.4547397   -2.0690125 
C     5.1444818    2.0567343   -1.7938870 
O     5.4644109    2.2555476   -3.1328967 
O     5.4498080    3.0638777   -0.8777835 
H     5.0812168    2.8724259    0.0423950 
C     4.8635685   -0.4214452   -2.2691725 
H     4.8330372    0.5375066   -0.3310592 
C     4.3409394   -1.7785701   -1.8038311 
H     5.9738767   -0.4832383   -2.3199582 
H     4.4966766   -0.2170083   -3.3010707 
C     4.3443760   -2.9001309   -2.5400107 
C     4.7652053   -3.0986735   -3.8153891 
C     4.6582759   -4.3507259   -4.3457530 
C     4.1411660   -5.3747463   -3.6012493 
C     3.7288320   -5.1531117   -2.3211205 
C     3.8422556   -3.9054443   -1.8208488 
H     5.1817583   -2.2886838   -4.4079999 
H     4.9886843   -4.5359425   -5.3650319 
H     4.0629212   -6.3704151   -4.0305392 
H     3.3236586   -5.9565276   -1.7147959 
N     3.4889014   -3.4697817   -0.5206787 
C     3.8395232   -2.0987020   -0.5886325 
H     3.0635046   -3.9461667    0.2985353 
H     3.6292076   -1.4335869    0.2516691 
