48
 energy: -9.063953772127 gnorm: 0.000522885488 xtb: 6.6.0 (2ccbbd7)
C            1.43829101868019        1.66842753179464        4.37109452416360
C            2.06175157902498        2.36472472880808        3.36246561211936
C            1.06589269930972        0.33590222920421        4.19039403726093
C            1.33512000044629       -0.26286487266368        2.96020859666092
C            1.96104772190633        0.43996484311948        1.95924195112546
C            2.33931602208324        1.76141236012642        2.14371100189155
H            2.34262754920281        3.39276663659720        3.51464037307778
H            1.03268181423717       -1.28425385968668        2.81256884165184
H            2.13224631036604       -0.02207312605704        1.00189829686746
H            1.23147540910754        2.14543815347421        5.31233158135192
C            3.01531863914097        2.52569026188075        1.04655260394490
C            2.08344712824323        2.89484769233311       -0.11904556240871
H            3.85910881486505        1.93728644019930        0.67355972399643
H            3.45217713239645        3.43809331181727        1.46553903566787
C            1.68670064119119        1.67356534188333       -0.91826426532804
O            0.44625004305173       -0.39454026968483        5.18655161017038
H            0.31618751455407        0.16513096469712        5.98243495563260
O            0.68956152351901        1.07191005988135       -0.57492110205559
N            0.86939435604188        3.55262170529548        0.33861378031509
H            2.59336231415737        3.60148183952396       -0.79209324560731
H            0.22740356249436        2.83211767307940        0.65938526897773
H            1.06017606715421        4.18516898457948        1.10688402279020
N            2.44894225272868        1.24997634233454       -1.98438577216390
C            3.71664398755452        1.86080644426513       -2.41127021442559
H            2.16354667683751        0.41425306840624       -2.48964542753804
C            3.47588774379866        3.25509525274020       -2.90908779217718
O            4.44702378938473        4.19826097958257       -2.74833026429232
O            2.26678982780971        3.52250946351739       -3.50830260865823
H            1.64904534704431        2.76742134457460       -3.37254060295933
C            4.43707304047708        0.99447574245602       -3.46886348460852
H            4.35383100759531        1.91768337538551       -1.51883278659051
C            5.92237171321210        0.91868954957687       -3.30785445914078
H            4.19273225025594        1.36532296491318       -4.46937554083093
H            4.03934708241474       -0.02490058376062       -3.42661375524656
C            6.81899831596581        1.96667939802803       -2.94244276232926
C            6.63222384104058        3.31660137926067       -2.62468707967217
C            7.71318943819479        4.08340271214019       -2.30848829910939
C            9.00794206539471        3.53848970009084       -2.29732273296390
C            9.22203198906064        2.22264257920939       -2.60563319838791
C            8.11916776136862        1.42247411589163       -2.93208758139644
H            5.49360853134715        3.77519459836407       -2.67412886857155
H            7.57010736853714        5.12413827225446       -2.07026346443697
H            9.84404217292680        4.16990243486064       -2.04641493872310
H           10.20891950202302        1.79593940278858       -2.60444037492880
N            8.01236826960422        0.08964513494286       -3.28493876956110
C            6.69012279195891       -0.20176604425290       -3.51369886399491
H            8.79975220387811       -0.55578167524038       -3.36952209957480
H            6.31631657484164       -1.16772695578854       -3.81251453896876
