48
Energy =
C     2.9083500    5.7018001   -6.3497730 
C     3.2734472    4.6580840   -5.5625918 
C     1.6237861    5.8156737   -6.7817306 
C     0.7120840    4.8839985   -6.4208989 
C     1.0710593    3.8384720   -5.6337254 
C     2.3560508    3.7174713   -5.2039161 
H     4.3040569    4.5839130   -5.2176429 
H    -0.3095237    4.9880856   -6.7696145 
H     0.3235998    3.1017863   -5.3505729 
H     3.6456350    6.4461824   -6.6311373 
C     2.7541689    2.5640910   -4.3125725 
C     2.3207998    2.7581876   -2.8365200 
H     3.8565592    2.3957628   -4.3501722 
H     2.3033639    1.6283515   -4.7093445 
C     2.7463225    1.5873925   -1.9622141 
O     1.2145676    6.8783468   -7.5936488 
H     1.9544642    7.5346835   -7.8185686 
O     2.2869989    1.5087868   -0.6505053 
N     2.8591289    4.0157093   -2.2941598 
H     1.2081627    2.7823737   -2.7782136 
H     3.9011164    4.0455873   -2.4327269 
H     2.4445733    4.8366191   -2.7902956 
N     3.4128987    0.4470514   -2.5269757 
C     4.6797266    0.1650482   -1.8091093 
H     2.7446697   -0.3384130   -2.3611704 
C     5.7155525    1.2712525   -1.9742853 
O     5.7044703    2.3177613   -2.8923547 
O     5.5954472    2.5734794   -1.4987245 
H     5.0731328    2.5878351   -0.6316039 
C     5.2825643   -1.1572421   -2.3344823 
H     4.4991789    0.0750432   -0.7104947 
C     4.4646420   -2.3647732   -1.9301411 
H     6.3150936   -1.2906394   -1.9379824 
H     5.3877972   -1.1038425   -3.4397507 
C     3.5533883   -3.0143498   -2.6735641 
C     3.1389054   -2.7828784   -3.9464140 
C     2.1780079   -3.5949346   -4.4733111 
C     1.6494824   -4.6129532   -3.7286624 
C     2.0778887   -4.8241319   -2.4517019 
C     3.0308525   -4.0086541   -1.9535262 
H     3.5507537   -1.9698846   -4.5369846 
H     1.8295194   -3.4303257   -5.4901763 
H     0.8828392   -5.2551091   -4.1552048 
H     1.6661675   -5.6239036   -1.8455357 
N     3.6006045   -4.0490619   -0.6528742 
C     4.5159277   -2.9478538   -0.7195781 
H     3.4047912   -4.7060797    0.1370165 
H     5.1530963   -2.6276066    0.1018860 
