48
 energy: -9.291522477153 gnorm: 0.000700925481 xtb: 6.6.0 (2ccbbd7)
C            0.72376995570395        6.56317503882113       -5.12755443169444
C            0.52321521777772        5.56075842875752       -4.20814053976747
C            2.01493098249046        6.97763701434943       -5.45772557042256
C            3.09068477436365        6.34846602755740       -4.83218116009478
C            2.88179616402809        5.34780179222854       -3.91515831499408
C            1.59726852610170        4.94131180427433       -3.58596937893831
H           -0.47719008786915        5.24810553153039       -3.96257503929104
H            4.08662100866169        6.66383385257659       -5.08744415168134
H            3.71975791400443        4.85172576896014       -3.45330443209581
H           -0.11512901671466        7.03883288096695       -5.60306181788919
C            1.39142363230759        3.82941053310810       -2.60503178646565
C            1.87715318532211        2.48010407384038       -3.14171089406384
H            0.33365521093700        3.74499348718764       -2.34019600868255
H            1.91279395440656        4.07301145993862       -1.67492673592215
C            1.83639154284387        1.41461625113648       -2.07069140682014
O            2.24958055147077        7.97966173948090       -6.37965921777912
H            1.39815408758374        8.32714141063089       -6.72316417680593
O            0.74815433736846        0.92670502041556       -1.84077066672848
N            1.06163028613806        2.03016610230215       -4.25829317193277
H            2.90673461968919        2.58672552293524       -3.50852535761597
H            0.20444344380200        1.64633868276183       -3.87146325397791
H            0.82549844894324        2.80668050525857       -4.86345628221873
N            2.96182245157576        1.00874086806414       -1.37809634141077
C            4.35265546864593        1.44788485247063       -1.59793562995472
H            2.86409946841936        0.22429769770841       -0.73666463774831
C            4.41657894464920        2.94974836869326       -1.78267316454278
O            4.97287968627532        3.42884040682474       -2.74643620053095
O            3.79387846498853        3.65487925450474       -0.80742891129163
H            3.39988481408984        3.03485907470908       -0.15064920025025
C            5.06574186707115        0.65326275644395       -2.70100528632026
H            4.88942767772644        1.25404726624775       -0.65462589998508
C            4.43122168981610        0.72843531243226       -4.04722218631769
H            5.12974999956933       -0.39920205414714       -2.40629330792517
H            6.09810553756030        1.00939111153594       -2.78372272316586
C            3.38410501611129       -0.10389890810851       -4.54105031011333
C            2.64814068199957       -1.15421927921293       -3.96715868611276
C            1.65022941928164       -1.73248646483959       -4.70096884038404
C            1.35918044086870       -1.29488287661990       -6.00317720694830
C            2.05989001059328       -0.27158701675171       -6.58052225326375
C            3.08396129464915        0.33735655697165       -5.84440710064419
H            2.85413822040272       -1.46364127283961       -2.95812191039056
H            1.06757417008397       -2.52920917127258       -4.26914413706645
H            0.56337478767776       -1.77001662970545       -6.55247167454141
H            1.83498855971621        0.07794130358439       -7.57207850909384
N            3.92099611670488        1.40245368193707       -6.12679568377675
C            4.72095709817848        1.63605298504978       -5.03613563509297
H            3.89246352751467        1.95417487879276       -6.98609392623361
H            5.43587664436722        2.43929710364268       -4.94981710652985
