48
Energy =
C     1.7149196   -1.8690344    1.8724377 
C     1.5539666   -0.5803263    1.4805035 
C     0.6316432   -2.6265641    2.1904854 
C    -0.6061162   -2.0872158    2.1143898 
C    -0.7731315   -0.8004850    1.7182303 
C     0.3075613   -0.0375415    1.3951641 
H     2.4274927    0.0059195    1.2085661 
H    -1.4625423   -2.7005660    2.3681189 
H    -1.7766847   -0.3904049    1.6520178 
H     2.7115397   -2.2932773    1.9199112 
C     0.1262463    1.3892692    0.9128738 
C     0.0412009    1.5094152   -0.6318353 
H     0.9721166    2.0108769    1.2810108 
H    -0.7872398    1.8291756    1.3690857 
C     1.3033229    0.9956200   -1.3227421 
O     0.7625049   -3.9597305    2.5963577 
H     1.7223650   -4.2845419    2.6225140 
O     1.4238691   -0.3672073   -1.5554568 
N    -1.1771615    0.8608941   -1.1483333 
H    -0.0218595    2.5905105   -0.8871846 
H    -1.0874396   -0.1774529   -1.0337171 
H    -2.0095372    1.1660790   -0.5935485 
N     2.4714169    1.8419149   -1.3707022 
C     3.7449420    1.5198538   -2.0693391 
H     2.3853824    2.7755910   -0.9080854 
C     4.2294765    2.7514883   -2.8337874 
O     3.9599684    2.8813755   -4.1914712 
O     4.9164043    3.7822559   -2.1909387 
H     4.9826885    3.6353529   -1.1950379 
C     3.7091067    0.2659330   -3.0068901 
H     4.5104682    1.3553507   -1.2838420 
C     4.1805478   -1.0147464   -2.3250678 
H     4.3983465    0.4127415   -3.8684486 
H     2.7087536    0.1746489   -3.4741838 
C     3.5878380   -2.2278928   -2.3294988 
C     2.4072747   -2.6317462   -2.8688710 
C     2.0421920   -3.9405847   -2.7400331 
C     2.8592346   -4.8236891   -2.0931460 
C     4.0445404   -4.4041704   -1.5699953 
C     4.3788940   -3.1034314   -1.7020057 
H     1.7427551   -1.9291967   -3.3606558 
H     1.0911455   -4.2813856   -3.1436939 
H     2.5609291   -5.8647923   -1.9913747 
H     4.7076630   -5.0942491   -1.0584703 
N     5.5755328   -2.4851724   -1.2573822 
C     5.3761013   -1.1432421   -1.7144528 
H     6.3855838   -2.9015856   -0.7418278 
H     6.1211505   -0.3558679   -1.6223862 
