48
Energy =
C     2.0849078    5.9835556    2.6513628 
C     1.7045327    5.5670779    1.4173543 
C     1.9605048    5.1537743    3.7213686 
C     1.4546927    3.9114467    3.5485306 
C     1.0729782    3.4891453    2.3165677 
C     1.1938508    4.3166093    1.2427916 
H     1.8139463    6.2420810    0.5722647 
H     1.3595613    3.2599930    4.4104944 
H     0.6682264    2.4872261    2.1982621 
H     2.4896062    6.9816060    2.7797607 
C     0.7863726    3.8386829   -0.1330327 
C     1.8392098    2.8935385   -0.7669158 
H     0.5934217    4.6990483   -0.8144989 
H    -0.1896987    3.3074815   -0.0499251 
C     1.3325917    2.2583292   -2.0545345 
O     2.3458976    5.5504332    5.0059091 
H     2.7053338    6.4976369    5.0551296 
O     0.1085606    2.6355052   -2.5930671 
N     3.0996932    3.6137242   -1.0110487 
H     2.0293046    2.0407180   -0.0751843 
H     2.9286021    4.4428400   -1.6307078 
H     3.5003492    3.9648314   -0.1102648 
N     1.9745602    1.0980155   -2.5961506 
C     3.3388447    1.2566527   -3.1436891 
H     1.4579628    0.1910202   -2.5584174 
C     3.4368893    2.3780427   -4.1765530 
O     4.5395563    3.2232854   -4.1470221 
O     2.4887344    2.5489397   -5.1833556 
H     1.7006268    1.9312617   -5.0503815 
C     3.8183260   -0.0816668   -3.7458585 
H     4.0327503    1.5458964   -2.3231271 
C     4.0345354   -1.1291217   -2.6760560 
H     4.7755675    0.0664494   -4.2957587 
H     3.0773365   -0.4434515   -4.4939535 
C     5.0665268   -1.1997662   -1.8209352 
C     6.1597435   -0.4020274   -1.7084726 
C     7.0744636   -0.6901246   -0.7386184 
C     6.8853951   -1.7587677    0.0938539 
C     5.7802544   -2.5463718   -0.0390221 
C     4.8899772   -2.2409307   -1.0062468 
H     6.3127353    0.4453510   -2.3713780 
H     7.9593499   -0.0675886   -0.6284331 
H     7.6197705   -1.9824022    0.8636656 
H     5.6155816   -3.3980682    0.6121956 
N     3.6816122   -2.9239275   -1.3091507 
C     3.1882789   -2.1374224   -2.4015783 
H     3.2642810   -3.7680718   -0.8544001 
H     2.2566414   -2.3326334   -2.9270966 
