48
Energy =
C     2.0973840    0.2983278    3.9694860 
C     2.9161063    0.9634918    3.1154246 
C     1.1922245    0.9812099    4.7195720 
C     1.1132888    2.3265415    4.6099687 
C     1.9290071    2.9966141    3.7570711 
C     2.8361352    2.3179939    3.0015783 
H     3.6373889    0.4036568    2.5270367 
H     0.3875422    2.8593939    5.2144337 
H     1.8483663    4.0776646    3.6841913 
H     2.1688981   -0.7807725    4.0514757 
C     3.7398855    3.0625896    2.0397554 
C     3.1570958    3.1775767    0.6058605 
H     4.7353467    2.5632853    1.9960513 
H     3.9503487    4.0820929    2.4325665 
C     3.0072621    1.8218098   -0.0856752 
O     0.3346809    0.3265921    5.6097134 
H     0.4515129   -0.6804691    5.6278329 
O     1.7682765    1.4186216   -0.5791838 
N     1.8960197    3.9440930    0.6136550 
H     3.8886076    3.7370001   -0.0189296 
H     1.1372386    3.3844626    1.0731745 
H     2.0114551    4.8335869    1.1530503 
N     4.0856339    0.8638133   -0.0813661 
C     5.0443752    1.0586938   -1.1948158 
H     3.6389645   -0.0766472   -0.1917191 
C     5.9245824    2.2877803   -0.9734257 
O     5.6996118    3.4514818   -1.7006434 
O     6.8938561    2.3100742    0.0265819 
H     6.9420886    1.4280240    0.5160367 
C     4.3281591    1.0502635   -2.5720176 
H     5.7471581    0.1940694   -1.1806534 
C     5.3078644    0.8433225   -3.7068998 
H     3.7729355    2.0037080   -2.7271187 
H     3.5627227    0.2445727   -2.6001874 
C     5.7823413   -0.3307829   -4.1515517 
C     5.5028818   -1.5942544   -3.7398483 
C     6.1351833   -2.6320919   -4.3592660 
C     7.0291696   -2.3941914   -5.3666196 
C     7.2969236   -1.1164902   -5.7601023 
C     6.6565450   -0.1071267   -5.1337876 
H     4.7970023   -1.7845424   -2.9370054 
H     5.9286097   -3.6536526   -4.0493854 
H     7.5305598   -3.2265219   -5.8541009 
H     8.0068922   -0.9097585   -6.5536646 
N     6.8011407    1.2845209   -5.3777947 
C     5.8985630    1.8297739   -4.4048479 
H     7.3997787    1.7772337   -6.0795290 
H     5.7418256    2.8947263   -4.2349815 
