48
Energy =
C    -1.9353154    0.1283644   -2.2884574 
C    -0.9282686    1.0307249   -2.1731595 
C    -2.7290268    0.1281012   -3.3921669 
C    -2.5080868    1.0301743   -4.3750025 
C    -1.5013426    1.9335048   -4.2660623 
C    -0.7043764    1.9413247   -3.1617146 
H    -0.2957462    1.0128270   -1.2884860 
H    -3.1470447    1.0168425   -5.2516804 
H    -1.3360063    2.6461913   -5.0696405 
H    -2.1009742   -0.5952664   -1.4972655 
C     0.4286134    2.9406139   -3.0432858 
C     1.8024425    2.3718237   -3.4800244 
H     0.4982178    3.2978305   -1.9893420 
H     0.2074481    3.8519554   -3.6403225 
C     2.2721373    1.2399267   -2.5710357 
O    -3.7765853   -0.7851638   -3.5416104 
H    -3.8673571   -1.4396111   -2.7717440 
O     2.0240117   -0.0768985   -2.9572829 
N     1.7819881    1.9731755   -4.8987215 
H     2.5626167    3.1769963   -3.3765507 
H     1.1610508    1.1399693   -5.0354994 
H     1.4153752    2.7559365   -5.4884491 
N     2.5796131    1.4865866   -1.1825209 
C     3.8757194    2.1763604   -0.9281667 
H     2.6212828    0.5436162   -0.7300170 
C     3.7333465    3.6994224   -0.8607403 
O     2.5430559    4.3251929   -1.2087214 
O     4.7771444    4.5014313   -0.3989677 
H     5.5578175    3.9609693   -0.0632283 
C     5.0216350    1.7293744   -1.8839473 
H     4.1855881    1.9144038    0.1080067 
C     5.3948310    0.2748284   -1.6919443 
H     5.9324624    2.3408552   -1.7077139 
H     4.7546403    1.9230155   -2.9453597 
C     6.0908542   -0.2483091   -0.6693818 
C     6.6361120    0.3604313    0.4152817 
C     7.3077638   -0.4074870    1.3207475 
C     7.4262370   -1.7564640    1.1292472 
C     6.8752115   -2.3452435    0.0299116 
C     6.2148273   -1.5641938   -0.8505080 
H     6.5492804    1.4317788    0.5659835 
H     7.7528701    0.0558112    2.1982417 
H     7.9639462   -2.3621287    1.8548365 
H     6.9624462   -3.4132964   -0.1396456 
N     5.5807044   -1.9734967   -2.0530144 
C     5.0778926   -0.7209754   -2.5380559 
H     5.5037412   -2.9254347   -2.4794336 
H     4.5201104   -0.6006642   -3.4646303 
