48
Energy =
C     1.3815376    0.8887385    2.8510131 
C     0.8739642   -0.2210495    2.2569582 
C     1.4065052    2.0723796    2.1819581 
C     0.9274650    2.1353284    0.9195408 
C     0.4132776    1.0311167    0.3231469 
C     0.3849370   -0.1583758    0.9867365 
H     0.8665552   -1.1600287    2.8036288 
H     0.9677273    3.0787868    0.3872675 
H     0.0328938    1.1094339   -0.6909996 
H     1.7675196    0.8277391    3.8626097 
C    -0.1726804   -1.4027589    0.3192616 
C     0.8478575   -2.1371823   -0.5894869 
H    -1.0677106   -1.1240317   -0.2820718 
H    -0.5452699   -2.1121359    1.0901747 
C     1.2442642   -1.3103318   -1.8084608 
O     1.9091335    3.2369629    2.7726760 
H     2.2970370    3.0933395    3.6978537 
O     0.2358705   -0.7135261   -2.5567281 
N     2.0085965   -2.6011805    0.1924012 
H     0.3360509   -3.0301949   -1.0147001 
H     2.4842355   -1.7886655    0.6517481 
H     1.6801416   -3.2348568    0.9583263 
N     2.5003727   -1.5227595   -2.4680727 
C     3.7158036   -0.8850538   -1.9149664 
H     2.4900730   -2.0881286   -3.3461892 
C     3.4483942    0.4739508   -1.2648764 
O     3.9248246    0.7137109    0.0178941 
O     2.7573802    1.4897422   -1.9267926 
H     2.4001429    1.1654217   -2.8152551 
C     4.7772025   -0.7844405   -3.0324633 
H     4.1169606   -1.5366437   -1.1055864 
C     6.1267048   -0.3621426   -2.4905030 
H     4.4368473   -0.0824179   -3.8247371 
H     4.8915181   -1.7763142   -3.5240095 
C     6.6108205    0.8876818   -2.3964497 
C     6.0582100    2.0696155   -2.7733409 
C     6.7642402    3.2153423   -2.5531211 
C     7.9988751    3.1645687   -1.9676813 
C     8.5343947    1.9669412   -1.5972491 
C     7.8162494    0.8471558   -1.8253891 
H     5.0747852    2.1170249   -3.2302228 
H     6.3379823    4.1742754   -2.8379072 
H     8.5523394    4.0832839   -1.7910232 
H     9.5095084    1.9095648   -1.1260572 
N     8.1842034   -0.4875805   -1.5063243 
C     7.0314765   -1.2062208   -1.9636239 
H     9.0612441   -0.8440664   -1.0624323 
H     6.9048482   -2.2830021   -1.8782759 
