48
Energy =
C    -1.9979537   -0.7938537    0.1215249 
C    -0.7157149   -1.2277121    0.2184239 
C    -2.5257616   -0.4868343   -1.0932996 
C    -1.7640089   -0.6130192   -2.2032888 
C    -0.4814873   -1.0470471   -2.1123041 
C     0.0512900   -1.3612925   -0.8987798 
H    -0.3049129   -1.4589332    1.1972124 
H    -2.1935121   -0.3581529   -3.1657447 
H     0.1116680   -1.1353213   -3.0169049 
H    -2.5981925   -0.6898297    1.0185594 
C     1.4881530   -1.8332121   -0.7874443 
C     2.4769045   -0.6762460   -0.5233046 
H     1.7817836   -2.3770685   -1.7119438 
H     1.5689673   -2.5777343    0.0346110 
C     2.4909139    0.3305907   -1.6698222 
O    -3.8455484   -0.0426270   -1.2286689 
H    -4.3401458    0.0479649   -0.3483197 
O     2.2208168    1.6775620   -1.4479811 
N     2.1610276   -0.0561862    0.7744845 
H     3.5074344   -1.0977000   -0.4850533 
H     2.3808596   -0.7288372    1.5448430 
H     2.7733998    0.7810306    0.9223468 
N     3.0368183   -0.0506206   -2.9387466 
C     4.3490714    0.5113034   -3.2994435 
H     2.5325419   -0.7374491   -3.5427268 
C     4.2642779    1.2218501   -4.6482384 
O     4.7095932    0.5957496   -5.8068479 
O     3.6823810    2.4832259   -4.7553477 
H     3.2381072    2.7515648   -3.8863456 
C     5.3947124   -0.6233360   -3.2643605 
H     4.6532857    1.2946625   -2.5653785 
C     6.8111729   -0.0969223   -3.3846692 
H     5.1695967   -1.3673519   -4.0581824 
H     5.3112525   -1.1647267   -2.2971900 
C     7.6482740   -0.2185009   -4.4303785 
C     7.4713227   -0.8303402   -5.6307636 
C     8.4974198   -0.8088424   -6.5288572 
C     9.6747089   -0.1873305   -6.2185384 
C     9.8328543    0.4178952   -5.0078434 
C     8.8026720    0.3854136   -4.1365306 
H     6.5374856   -1.3188077   -5.8898896 
H     8.3741573   -1.2834470   -7.4995699 
H    10.4861696   -0.1720376   -6.9420004 
H    10.7597717    0.9171706   -4.7466275 
N     8.7672561    0.9497407   -2.8335693 
C     7.4438646    0.5916596   -2.4172193 
H     9.5094496    1.4766079   -2.3181427 
H     7.0142942    0.8465580   -1.4512550 
