48
Energy =
C     0.2261220    0.3966564    4.3369406 
C     0.2558239    1.5094872    3.5559778 
C     0.4423364   -0.8323047    3.7892408 
C     0.6836100   -0.9395796    2.4623590 
C     0.7109793    0.1731963    1.6900812 
C     0.5133162    1.4012966    2.2242283 
H     0.0690968    2.4813873    4.0047842 
H     0.8526055   -1.9189427    2.0286961 
H     0.9270858    0.1963772    0.5318982 
H     0.0249251    0.4912252    5.3985667 
C     0.5031310    2.6201192    1.3105835 
C     1.6011977    2.5908826    0.2023123 
H     0.6394371    3.5365124    1.9262220 
H    -0.5006594    2.6965761    0.8365120 
C     1.3348969    1.5357950   -0.8989533 
O     0.4219047   -1.9950596    4.5657566 
H     0.2253689   -1.8315459    5.5469717 
O     1.1286309    0.2013350   -0.5506605 
N     1.7625040    3.9449423   -0.3577473 
H     2.5662161    2.2791873    0.6696451 
H     0.8293892    4.3280763   -0.6474056 
H     2.1354133    4.5900723    0.3798645 
N     1.4501707    1.8451661   -2.2960070 
C     2.8597052    2.0629001   -2.6974222 
H     0.8597188    2.6900170   -2.4708505 
C     2.9509552    3.0079560   -3.8955490 
O     2.7765136    2.5236299   -5.1861660 
O     3.1409700    4.3798528   -3.7213217 
H     3.1264835    4.6539317   -2.7491795 
C     3.5009350    0.6853375   -2.9923666 
H     3.4372369    2.5646695   -1.8876299 
C     5.0071647    0.7733527   -3.1190290 
H     3.0387697    0.2401958   -3.9008418 
H     3.2595131   -0.0226574   -2.1679029 
C     5.7380400    0.7669666   -4.2473744 
C     5.3487170    0.6573961   -5.5441124 
C     6.3071278    0.6791246   -6.5140573 
C     7.6266345    0.8043945   -6.1794203 
C     7.9961432    0.9088337   -4.8718025 
C     7.0295307    0.8868426   -3.9300971 
H     4.3036469    0.5579709   -5.8196673 
H     6.0176505    0.6001073   -7.5594206 
H     8.3835586    0.8228261   -6.9595942 
H     9.0387108    1.0090812   -4.5896489 
N     7.2031336    0.9798786   -2.5231703 
C     5.8450834    0.8987526   -2.0741387 
H     8.0854576    1.0799246   -1.9704362 
H     5.5405151    0.9331283   -1.0306186 
