48
Energy =
C    -1.8770257   -0.4022854   -4.4886742 
C    -1.7159569   -0.0774420   -3.1810605 
C    -1.1983179    0.2786412   -5.4500736 
C    -0.3631725    1.2811500   -5.0957344 
C    -0.1975745    1.6095392   -3.7896030 
C    -0.8759272    0.9329146   -2.8221895 
H    -2.2579192   -0.6355944   -2.4223571 
H     0.1726438    1.8153833   -5.8728330 
H     0.4826240    2.4130216   -3.5282472 
H    -2.5464913   -1.2105067   -4.7626170 
C    -0.6720326    1.2707996   -1.3593821 
C     0.2421451    0.2433767   -0.6546450 
H    -1.6620799    1.2923864   -0.8532265 
H    -0.2434189    2.2916545   -1.2456526 
C     1.6428190    0.2191373   -1.2528932 
O    -1.3401630   -0.0301947   -6.8065516 
H    -1.9765826   -0.7983318   -6.9901723 
O     1.8878750   -0.7119179   -2.2486950 
N     0.2672886    0.5087520    0.7951893 
H    -0.1636121   -0.7829916   -0.8212456 
H     0.4593004    1.5230697    0.9779187 
H    -0.6746517    0.2997016    1.2036296 
N     2.5735712    1.2796701   -0.9304402 
C     3.9075116    1.4380705   -1.5878280 
H     2.7294146    1.1990329    0.1012126 
C     4.1813618    2.9270297   -1.8011432 
O     5.4781039    3.4021455   -1.6523875 
O     3.1969505    3.8110791   -2.2435373 
H     2.2906169    3.3730697   -2.2587942 
C     4.1357231    0.7027576   -2.9400899 
H     4.7035467    1.1712288   -0.8831348 
C     4.4444955   -0.8012669   -3.0005051 
H     4.9893575    1.1869633   -3.4673512 
H     3.2414321    0.9045089   -3.5716020 
C     4.9893715   -1.6817493   -2.1140088 
C     5.4098212   -1.5448358   -0.8219186 
C     5.9263157   -2.6278193   -0.1739995 
C     6.0240344   -3.8307124   -0.8056366 
C     5.6058230   -3.9608752   -2.0909272 
C     5.0961879   -2.8787777   -2.7149135 
H     5.3553293   -0.6305530   -0.2696637 
H     6.2617046   -2.5321969    0.8562771 
H     6.4367995   -4.6884162   -0.2803170 
H     5.6775761   -4.9112016   -2.6092167 
N     4.6283927   -2.8370234   -4.0494332 
C     4.2323205   -1.4706967   -4.1532554 
H     4.5939227   -3.5974514   -4.7666811 
H     3.8083191   -1.0353788   -5.0555899 
