48
Energy =
C     4.0019601   -2.3231892    0.6711712 
C     2.9777000   -1.5257419    1.0618319 
C     4.9103634   -1.8788130   -0.2347099 
C     4.7888947   -0.6371266   -0.7497504 
C     3.7358872    0.1671032   -0.4077439 
C     2.8376230   -0.2765127    0.5430044 
H     2.2668077   -1.8974388    1.7958988 
H     5.5427627   -0.2886995   -1.4449154 
H     3.7287648    1.4076830   -0.8447144 
H     4.0964945   -3.3181527    1.0925547 
C     1.6536712    0.5732861    0.9842976 
C     1.4847372    1.9055876    0.2103763 
H     1.7615563    0.7942826    2.0697188 
H     0.7297975   -0.0361216    0.8619140 
C     1.6724016    1.7028618   -1.2892798 
O     5.9813856   -2.6756285   -0.6530299 
H     6.0244577   -3.5805245   -0.1961221 
O     0.5870541    1.7953272   -2.1553669 
N     0.1856359    2.5170150    0.5290852 
H     2.2910893    2.6088458    0.5273866 
H    -0.5982559    1.8711277    0.2678016 
H     0.1176340    2.6853405    1.5611725 
N     2.8968588    1.0758419   -1.7638493 
C     3.5676073    1.7126378   -2.9567407 
H     2.4776752    0.1591600   -2.1568866 
C     3.1408129    3.1507775   -3.2553499 
O     3.6339308    4.1781228   -2.4675952 
O     2.2863618    3.4580938   -4.2974703 
H     1.7003631    2.5225428   -4.6277002 
C     3.5584059    0.7959777   -4.2063100 
H     4.6570252    1.8415186   -2.7207724 
C     2.1581367    0.4484667   -4.7141596 
H     4.1472655   -0.1182308   -3.9532027 
H     4.1351070    1.2753402   -5.0351759 
C     1.7473620   -0.7795240   -5.0670955 
C     2.3953781   -1.9737065   -4.9684121 
C     1.7673065   -3.0988942   -5.4117842 
C     0.5165102   -3.0208228   -5.9496742 
C    -0.1093451   -1.8169224   -6.0476955 
C     0.5331242   -0.7159693   -5.5980666 
H     3.3889175   -2.0618083   -4.5457281 
H     2.2656517   -4.0630206   -5.3386119 
H     0.0205986   -3.9214995   -6.3045880 
H    -1.1022935   -1.7407805   -6.4811058 
N     0.0361902    0.6067795   -5.6474517 
C     1.0353721    1.4586157   -5.0031195 
H    -0.8560956    0.9462992   -6.0674890 
H     0.3513296    2.3196435   -5.1957930 
