48
Energy =
C     2.6728395    3.5112549    1.9747493 
C     2.1537012    3.4578275    0.7224924 
C     1.8648395    3.7619897    3.0392634 
C     0.5416791    3.9573805    2.8417846 
C     0.0176039    3.9048746    1.5919782 
C     0.8211019    3.6512464    0.5220374 
H     2.8106604    3.2527717   -0.1177624 
H    -0.0925265    4.1559221    3.6976197 
H    -1.0477803    4.0650009    1.4550896 
H     3.7350325    3.3511992    2.1209026 
C     0.2409264    3.5854651   -0.8764089 
C    -0.2572845    2.1752054   -1.2854102 
H     1.0016090    3.9313986   -1.6117215 
H    -0.5959870    4.3120999   -0.9663245 
C     0.8524862    1.1306732   -1.3165524 
O     2.3677176    3.8275474    4.3438098 
H     3.3656477    3.6590160    4.4065354 
O     1.3645824    0.5904709   -0.1404349 
N    -1.3874951    1.7414324   -0.4479507 
H    -0.6238268    2.2520938   -2.3335617 
H    -1.0388498    1.5204226    0.5161435 
H    -2.0899292    2.5116462   -0.3624768 
N     1.4831772    0.7859679   -2.5553249 
C     2.8937727    1.1856014   -2.7035960 
H     0.9221863    0.3182559   -3.3008682 
C     3.0290132    2.6156484   -3.2057534 
O     3.9864893    3.4418959   -2.6304336 
O     2.2627081    3.1103149   -4.2618698 
H     1.6324147    2.4110120   -4.6234482 
C     3.6202391    0.1975881   -3.6386883 
H     3.3947750    1.1662282   -1.7077972 
C     3.5987158   -1.2110318   -3.0860565 
H     4.6769413    0.5152539   -3.7842241 
H     3.1432505    0.2149358   -4.6441935 
C     4.3229378   -1.6864102   -2.0603203 
C     5.2508944   -1.0656710   -1.2875597 
C     5.8462535   -1.7805059   -0.2885583 
C     5.5095026   -3.0900240   -0.0821317 
C     4.5759366   -3.6923339   -0.8723884 
C     4.0017507   -2.9643366   -1.8527370 
H     5.5142794   -0.0250883   -1.4514678 
H     6.5884341   -1.3073041    0.3510996 
H     5.9835664   -3.6534326    0.7181930 
H     4.2935228   -4.7287214   -0.7195872 
N     3.0117265   -3.3959747   -2.7748204 
C     2.8025637   -2.1978319   -3.5337096 
H     2.5651685   -4.3362983   -2.8766377 
H     2.0855721   -2.1027684   -4.3454787 
