48
Energy =
C     1.4461333   -1.0116980    3.0350057 
C     1.4213335   -1.8046360    1.9338661 
C     0.9199989    0.2413197    2.9871466 
C     0.3708587    0.6919524    1.8365460 
C     0.3430738   -0.0967938    0.7325517 
C     0.8711554   -1.3515558    0.7739213 
H     1.8471759   -2.8034165    1.9864769 
H    -0.0451042    1.6934580    1.8114067 
H    -0.0986745    0.2858073   -0.1853535 
H     1.8882149   -1.3823392    3.9535331 
C     0.8530778   -2.2287485   -0.4613940 
C     2.0825902   -2.0359278   -1.3810145 
H    -0.0705283   -2.0178438   -1.0468707 
H     0.7783537   -3.2980727   -0.1661936 
C     2.2439168   -0.5945557   -1.8424532 
O     0.9323146    1.0847477    4.1024763 
H     1.3568728    0.6722896    4.9258316 
O     1.3351436   -0.0686368   -2.7526098 
N     3.3055867   -2.5744401   -0.7553009 
H     1.8916091   -2.6086333   -2.3190078 
H     3.5071196   -2.0643249    0.1377201 
H     3.1594749   -3.5819224   -0.5073092 
N     3.1795544    0.2890743   -1.2058593 
C     4.4559919    0.6326759   -1.8705231 
H     2.9303210    0.6738620   -0.2676419 
C     4.4475924    2.0713094   -2.3800113 
O     5.4721430    2.9278568   -1.9965097 
O     3.4694824    2.5503033   -3.2509908 
H     2.7482432    1.8618072   -3.4111043 
C     4.8459208   -0.3886338   -2.9723773 
H     5.2495538    0.6022034   -1.0891646 
C     6.2698245   -0.1873803   -3.4443360 
H     4.1432144   -0.3253258   -3.8318385 
H     4.7531692   -1.4227900   -2.5645186 
C     6.6857525    0.5739198   -4.4703240 
C     5.9702569    1.3215994   -5.3498352 
C     6.6455733    2.0192524   -6.3075031 
C     8.0101388    1.9596354   -6.3729215 
C     8.7080068    1.2027329   -5.4793279 
C     8.0171799    0.5217138   -4.5409390 
H     4.8874634    1.3800317   -5.2977296 
H     6.0947940    2.6318441   -7.0174472 
H     8.5407394    2.5229401   -7.1364045 
H     9.7907308    1.1492363   -5.5133206 
N     8.5488345   -0.3087426   -3.5181387 
C     7.3509279   -0.7219128   -2.8489423 
H     9.5450935   -0.5536296   -3.3157158 
H     7.3286165   -1.3652901   -1.9718390 
