48
Energy =
C     2.7911609    0.4441037   -7.1712447 
C     2.2503710    0.9983703   -6.0568127 
C     2.0501138   -0.3897180   -7.9484560 
C     0.7725838   -0.6667241   -7.6018404 
C     0.2265293   -0.1167778   -6.4876934 
C     0.9613556    0.7253569   -5.7110169 
H     2.8622693    1.6514201   -5.4379528 
H     0.1946885   -1.3386844   -8.2265061 
H    -0.7987697   -0.3605485   -6.2227683 
H     3.8193756    0.6656530   -7.4356204 
C     0.3599500    1.3212731   -4.4573888 
C     0.4563033    0.3615170   -3.2463983 
H    -0.7059785    1.5677285   -4.6510760 
H     0.8405692    2.2968597   -4.2229871 
C     1.9031311    0.0054759   -2.8696725 
O     2.5754003   -0.9736893   -9.1061269 
H     3.5441001   -0.7323589   -9.2843047 
O     2.5293527   -0.9836865   -3.6206419 
N    -0.3179571    0.9095698   -2.1189343 
H     0.0016227   -0.6163613   -3.5363390 
H    -0.0847131    1.9205138   -1.9679782 
H    -1.3407786    0.8648448   -2.3402300 
N     2.4979719    0.3593923   -1.6015800 
C     3.3823543    1.5484699   -1.6596057 
H     1.7521115    0.4663815   -0.8800319 
C     2.6846388    2.8026174   -2.1809253 
O     2.9086983    3.2464356   -3.4783382 
O     1.7746208    3.5044620   -1.3937786 
H     1.7224437    3.1273299   -0.4587596 
C     4.6776588    1.2224347   -2.4390813 
H     3.6884783    1.7994805   -0.6195392 
C     5.5152887    0.1895379   -1.7184083 
H     5.2790866    2.1469794   -2.5830726 
H     4.4338302    0.8609048   -3.4614291 
C     6.3582246    0.4103271   -0.6979228 
C     6.6908837    1.5727431   -0.0801230 
C     7.5829331    1.5265086    0.9509178 
C     8.1214291    0.3325473    1.3453482 
C     7.7704228   -0.8224454    0.7111139 
C     6.8873012   -0.7501331   -0.3069251 
H     6.2615558    2.5205045   -0.3913837 
H     7.8662534    2.4437575    1.4617055 
H     8.8311524    0.3032833    2.1685783 
H     8.1852266   -1.7785156    1.0123567 
N     6.3861512   -1.8259320   -1.0871023 
C     5.4975984   -1.1302592   -1.9732192 
H     6.6028640   -2.8476666   -1.0375388 
H     4.8816154   -1.6100495   -2.7306865 
