48
Energy =
C     1.4748736    5.1787782   -4.6721604 
C     2.1681768    4.2227270   -4.0047868 
C     0.2161257    5.5097488   -4.2795231 
C    -0.3411283    4.8795207   -3.2208638 
C     0.3473352    3.9220955   -2.5489657 
C     1.6105136    3.5897829   -2.9353704 
H     3.1724271    3.9691733   -4.3363176 
H    -1.3476910    5.1513078   -2.9213312 
H    -0.1238504    3.4230011   -1.7063555 
H     1.9308300    5.6757325   -5.5219835 
C     2.3792119    2.5104752   -2.2024549 
C     2.3836694    1.1580338   -2.9648962 
H     1.9657869    2.3602180   -1.1810702 
H     3.4212993    2.8795778   -2.0718948 
C     3.1698779    0.0713202   -2.2179380 
O    -0.5265212    6.4902352   -4.9445440 
H    -0.0416370    6.9131593   -5.7291467 
O     2.5078000   -1.0669171   -1.7727755 
N     1.0031059    0.7147996   -3.2256145 
H     2.8901193    1.2832278   -3.9474266 
H     0.4504158    0.6720485   -2.3371540 
H     0.5240046    1.3570114   -3.8992012 
N     4.5296434    0.2556150   -1.7709951 
C     5.5470659    0.4223704   -2.8398092 
H     4.5558286    1.0278723   -1.0703185 
C     5.6317128    1.8622430   -3.3461848 
O     5.0481868    2.2347830   -4.5474462 
O     6.1620174    2.8675097   -2.5391851 
H     6.6415473    2.4927367   -1.7337198 
C     5.3749864   -0.6432434   -3.9537354 
H     6.5355823    0.2275429   -2.3673845 
C     6.6269674   -0.7945703   -4.7936735 
H     4.5017461   -0.4058687   -4.5954752 
H     5.1505576   -1.6276264   -3.4828160 
C     6.8305431   -0.3599931   -6.0497359 
C     5.9964956    0.2967994   -6.8975593 
C     6.4566732    0.6232328   -8.1388108 
C     7.7280542    0.2904547   -8.5145720 
C     8.5476385   -0.3717495   -7.6501747 
C     8.0702906   -0.6824466   -6.4263888 
H     4.9860266    0.5661342   -6.6084399 
H     5.8072018    1.1534077   -8.8304377 
H     8.0858483    0.5559817   -9.5058643 
H     9.5584569   -0.6444758   -7.9323408 
N     8.7566458   -1.3701031   -5.3898701 
C     7.7508075   -1.4008885   -4.3703364 
H     9.7305808   -1.7496315   -5.3764152 
H     7.8836578   -1.8551387   -3.3915762 
