48
Energy =
C     1.0068173    6.3731594   -1.0744895 
C     0.4442067    5.2177786   -1.5111814 
C     1.6188978    6.4206030    0.1385272 
C     1.6734772    5.3070536    0.9025058 
C     1.1071250    4.1508635    0.4748376 
C     0.4811148    4.0982274   -0.7342313 
H    -0.0309340    5.1990182   -2.4885125 
H     2.1935268    5.3459766    1.8534055 
H     1.1848950    3.2636621    1.0970035 
H     0.9688900    7.2595188   -1.6990289 
C    -0.1484760    2.8097052   -1.2294626 
C     0.8870294    1.8706029   -1.9046528 
H    -0.9549155    3.0577506   -1.9536808 
H    -0.6647669    2.2870755   -0.3932409 
C     1.7096456    1.0778290   -0.8928853 
O     2.1875148    7.6017821    0.6253767 
H     2.1739696    8.3691615   -0.0371486 
O     1.1971564    0.8145961    0.3742169 
N     0.2031394    0.9543199   -2.8375773 
H     1.6318217    2.4813310   -2.4732691 
H    -0.5127404    0.3864095   -2.3201840 
H    -0.2911039    1.4944084   -3.5870129 
N     2.9413448    0.4460715   -1.2839316 
C     4.1670720    1.2546482   -1.0203388 
H     2.8435620    0.1539180   -2.2820553 
C     3.9078301    2.7173444   -0.6452226 
O     3.5569318    3.6290148   -1.6326949 
O     3.9050007    3.1456331    0.6804691 
H     4.0914520    2.3874830    1.3210016 
C     5.1438033    1.1793809   -2.2183107 
H     4.6785301    0.7967331   -0.1465163 
C     5.6646199   -0.2228900   -2.4450584 
H     6.0079858    1.8590797   -2.0441392 
H     4.6396683    1.5602082   -3.1342345 
C     6.6093262   -0.8530102   -1.7297235 
C     7.3343179   -0.4150710   -0.6684664 
C     8.2463751   -1.2634778   -0.1125311 
C     8.4187570   -2.5216206   -0.6206449 
C     7.6802040   -2.9386472   -1.6883417 
C     6.7843186   -2.0808082   -2.2204423 
H     7.1981146    0.5843381   -0.2656373 
H     8.8386542   -0.9374358    0.7390301 
H     9.1470210   -3.1922769   -0.1717718 
H     7.8041159   -3.9328818   -2.1036486 
N     5.9228251   -2.3139792   -3.3259606 
C     5.2302088   -1.0608337   -3.4028768 
H     5.8255500   -3.1676277   -3.9217900 
H     4.4591717   -0.8294506   -4.1336196 
