48
Energy =
C     5.2686223    6.3576223    1.2050426 
C     4.9841641    5.0573577    0.9351638 
C     4.8303094    6.9281789    2.3586452 
C     4.1099228    6.1934239    3.2360143 
C     3.8221988    4.8935304    2.9725844 
C     4.2594944    4.3160600    1.8200120 
H     5.3461199    4.6136090    0.0061744 
H     3.7660737    6.6612160    4.1522931 
H     3.2383468    4.3226996    3.6901918 
H     5.8481455    6.9403226    0.4961340 
C     3.9272950    2.8716913    1.5130790 
C     2.7447746    2.7430174    0.5155022 
H     3.6949310    2.3105712    2.4453892 
H     4.8427647    2.3930502    1.0920637 
C     2.6058604    1.3192481   -0.0289363 
O     5.1045462    8.2643118    2.6656348 
H     5.6518065    8.7463222    1.9605920 
O     1.3788437    0.6676363    0.0207108 
N     1.4919190    3.2032016    1.1437638 
H     2.9431826    3.3733986   -0.3797767 
H     1.2868282    2.6353698    2.0004422 
H     1.5646697    4.2086133    1.4253040 
N     3.7646320    0.5351082   -0.3511628 
C     4.4265360    0.7231645   -1.6575462 
H     4.1722809   -0.0799648    0.3880634 
C     4.7770891    2.1830748   -1.9354363 
O     5.9107695    2.7173560   -1.3418572 
O     3.9412613    3.0568960   -2.6297182 
H     3.1296437    2.5996396   -3.0121802 
C     3.5975505    0.0353807   -2.7635668 
H     5.4193708    0.2184857   -1.6170973 
C     3.5999115   -1.4665045   -2.5867671 
H     4.0048189    0.2887822   -3.7669237 
H     2.5447442    0.3936121   -2.7349107 
C     4.5466927   -2.3235472   -2.9986187 
C     5.6955735   -2.0884173   -3.6833214 
C     6.5037710   -3.1477870   -3.9752870 
C     6.1572204   -4.4106338   -3.5804081 
C     5.0008020   -4.6214800   -2.8893967 
C     4.2170219   -3.5577888   -2.6146828 
H     5.9754491   -1.0852680   -3.9914162 
H     7.4296352   -2.9865848   -4.5223506 
H     6.8076209   -5.2494771   -3.8151071 
H     4.7135019   -5.6153771   -2.5636909 
N     2.9908590   -3.5565513   -1.8975704 
C     2.6633961   -2.1605428   -1.9165776 
H     2.4669237   -4.3537242   -1.4698087 
H     1.7936220   -1.7238964   -1.4290525 
