48
Energy =
C     0.3602319   -2.1411925    0.5868699 
C    -0.3014682   -1.2114101   -0.1442082 
C     1.6612225   -1.9495377    0.9252120 
C     2.2988438   -0.8302262    0.5202432 
C     1.6671336    0.0968170   -0.2641480 
C     0.3313728   -0.0834693   -0.5638213 
H    -1.3473891   -1.3752963   -0.3901320 
H     3.3251738   -0.6748830    0.8293156 
H     2.2983387    1.2292393   -0.5041841 
H    -0.1602552   -3.0351675    0.9116201 
C    -0.4483384    0.9335824   -1.3857879 
C     0.4222401    2.0174877   -2.0521152 
H    -1.2054266    1.4236356   -0.7360284 
H    -0.9998224    0.3870925   -2.1836938 
C     1.6996549    1.4112553   -2.6099232 
O     2.3643297   -2.8834188    1.6959712 
H     1.8102468   -3.6870570    1.9696297 
O     1.7805944    1.0735789   -3.9602259 
N    -0.3693513    2.7041504   -3.0789013 
H     0.7377218    2.7556700   -1.2772939 
H    -0.6093378    2.1868049   -3.9580660 
H    -0.6504104    3.6986882   -2.9141307 
N     2.6309751    0.7991018   -1.6716671 
C     4.0186187    1.3703800   -1.7249707 
H     2.7851608   -0.1837661   -2.0894486 
C     4.0475052    2.8438113   -1.2702402 
O     4.4259425    3.1252805    0.0353596 
O     3.6324483    3.9058300   -2.0718468 
H     3.2647472    3.6088529   -2.9605431 
C     4.6903257    1.1520582   -3.1196359 
H     4.6160854    0.7983081   -0.9816920 
C     6.2156055    1.0915151   -3.2524923 
H     4.3271613    1.9098878   -3.8437192 
H     4.3247899    0.1880665   -3.5384356 
C     7.2448950    1.3899137   -2.4118635 
C     7.2735192    1.8279037   -1.1216413 
C     8.4785245    2.0528574   -0.5217585 
C     9.6392464    1.8395640   -1.2033611 
C     9.6037253    1.4006556   -2.4885808 
C     8.4015422    1.1858138   -3.0622640 
H     6.3897670    2.0064113   -0.5456629 
H     8.5155376    2.4078645    0.5074407 
H    10.5963084    2.0223902   -0.7197133 
H    10.5179327    1.2273204   -3.0470146 
N     8.1805899    0.7381109   -4.3854023 
C     6.7550379    0.7100271   -4.4280849 
H     8.8730700    0.4931329   -5.1302782 
H     6.1830519    0.4270041   -5.3103362 
