48
Energy =
C     4.6673107    1.7799279    5.0365482 
C     4.2913644    1.1278323    3.9073818 
C     3.7285888    2.3235875    5.8565407 
C     2.4186267    2.2109220    5.5398040 
C     2.0367548    1.5602109    4.4116833 
C     2.9726775    1.0114371    3.5893324 
H     5.0528753    0.6989064    3.2608775 
H     1.6801814    2.6501039    6.2017419 
H     0.9790274    1.4848361    4.1735073 
H     5.7203156    1.8659453    5.2817867 
C     2.5567096    0.2988710    2.3213594 
C     2.7524938    1.1739910    1.0580932 
H     1.4982437   -0.0408413    2.3833081 
H     3.1588459   -0.6335951    2.2244658 
C     2.5263502    0.3743580   -0.2274384 
O     4.0817682    3.0027423    7.0270829 
H     5.0811792    3.0448566    7.1944452 
O     2.0821359   -0.9410373   -0.1523774 
N     1.8673441    2.3503599    1.1027241 
H     3.8112485    1.5138329    1.0330357 
H     0.8756226    2.0468953    1.2569544 
H     2.1328239    2.9683838    1.9062619 
N     2.5731502    1.0038645   -1.5210528 
C     3.9468326    1.4049000   -1.9238490 
H     1.9085268    1.8122247   -1.4876324 
C     3.9980967    2.8558173   -2.4161990 
O     4.3008677    3.1414979   -3.7425783 
O     3.7611776    3.9193787   -1.5472718 
H     3.4862792    3.6025715   -0.6295921 
C     4.4442066    0.4285653   -3.0112871 
H     4.6705744    1.3658895   -1.0786487 
C     4.6818126   -0.9609436   -2.4636487 
H     5.3981852    0.8007563   -3.4494913 
H     3.7142171    0.4025892   -3.8494666 
C     3.8368725   -2.0042990   -2.4993146 
C     2.5859539   -2.0981183   -3.0192502 
C     1.9307566   -3.2905601   -2.9217341 
C     2.5285161   -4.3595589   -2.3133522 
C     3.7839646   -4.2411754   -1.7952386 
C     4.4109834   -3.0508520   -1.9030784 
H     2.1008295   -1.2447150   -3.4822323 
H     0.9237851   -3.3867790   -3.3198340 
H     1.9972996   -5.3045844   -2.2345516 
H     4.2699503   -5.0768093   -1.3037332 
N     5.7094609   -2.7189953   -1.4298233 
C     5.8034927   -1.3457455   -1.8292543 
H     6.4040715   -3.3185972   -0.9282951 
H     6.6662532   -0.7099734   -1.6441938 
