48
 energy: -9.075596845994 gnorm: 0.000569126215 xtb: 6.6.0 (2ccbbd7)
C           -1.98486344708420        4.48668033786287       -1.04509358751104
C           -1.80299634027240        3.12724321304599       -1.14542370395988
C           -1.31164037115280        5.36006564439379       -1.90031874408010
C           -0.44840261483913        4.81724466135618       -2.85151622063146
C           -0.27644361423233        3.45740111029244       -2.94629433338230
C           -0.95129892207919        2.59048546998213       -2.10022025295652
H           -2.32482652196425        2.46432457951765       -0.47676068443115
H            0.08769719958301        5.48885076488442       -3.49831271221834
H            0.40227770134842        3.04630706235955       -3.67319289606619
H           -2.65035130446660        4.89150796568660       -0.30386487615833
C           -0.72170249050500        1.11265356311974       -2.18303156990353
C            0.54908070808569        0.65578698698767       -1.45111039408395
H           -0.65426808950856        0.82007665661670       -3.23615468964068
H           -1.59330515223304        0.58979879270052       -1.77637872249609
C            1.79768453634441        1.15500021101683       -2.14943618335875
O           -1.47945140522282        6.72999519718881       -1.82925254397337
H           -2.09960780732560        6.95526400840115       -1.10231196622227
O            1.79185239881582        1.31314608273149       -3.35411279187572
N            0.54124307888798        1.07195399888202       -0.05429764484691
H            0.60136281845369       -0.44478674499106       -1.46712342631305
H            0.56113550500775        2.08199622728874       -0.01265439305437
H           -0.31048313683822        0.77023069746703        0.40105150195690
N            2.89680186197917        1.40797513641556       -1.36176091417597
C            4.20925560432024        1.82731551426072       -1.88065258147520
H            2.82948308988680        1.29810059407621       -0.34334365450708
C            4.20496684483116        3.29517357918367       -2.19790009151645
O            5.26311634599542        4.05942791718128       -1.79793635404603
O            3.13690434211541        3.77067717249542       -2.91415224613702
H            2.58096228067193        2.98428004784037       -3.14056469471811
C            4.63357979975539        0.98314977585276       -3.09190008905519
H            4.94367122582960        1.66273157714551       -1.07797275532409
C            6.10932123038241        0.79338795099991       -3.26783558876645
H            4.20329408377287        1.41613131089747       -4.00046961190576
H            4.16708042827816       -0.00356431384408       -2.99639541027905
C            7.18964768482974        1.66666250896894       -2.92081949112831
C            7.26713093349424        2.93170831401363       -2.31994569242268
C            8.48475467223375        3.51183023196466       -2.12582082162920
C            9.66696859910577        2.86341054063583       -2.51610735369884
C            9.62874801026663        1.63052824945758       -3.10639166628871
C            8.38298272735707        1.02361167051256       -3.31259036908770
H            6.23769301105936        3.52739188746993       -2.01798284827062
H            8.53801761662656        4.48730878128424       -1.67171490474381
H           10.61509400087322        3.34810874820760       -2.35215101821032
H           10.52603358627998        1.12465646119587       -3.41464756908313
N            8.03843678462000       -0.18748530659493       -3.88130830940832
C            6.67286065693594       -0.31311331985703       -3.85514835275565
H            8.70157960494925       -0.86082653771824       -4.26940570882419
H            6.12732963838622       -1.15827445582289       -4.24283797927564
