48
 energy: -9.073576346247 gnorm: 0.000606955380 xtb: 6.6.0 (2ccbbd7)
C           -2.07579553804397       -3.36681623868978       -3.99238144634120
C           -0.99813553911958       -3.44164732878943       -3.14130022600487
C           -2.12937854524171       -2.39091448350278       -4.98820467069203
C           -1.06539947803766       -1.49574971770082       -5.09076154735313
C            0.00616995463775       -1.57969340487506       -4.23522139577286
C            0.06328946379027       -2.55299576297689       -3.24956789444719
H           -0.97067410323809       -4.20129029948884       -2.37880225823813
H           -1.10748341330090       -0.73648071493310       -5.85127920075744
H            0.80836912735395       -0.86724027373103       -4.30524450350867
H           -2.88967379822736       -4.06347077170505       -3.89907697063153
C            1.23922594983034       -2.65467084675214       -2.32224650030352
C            1.45529650344455       -1.42829376105178       -1.40551036688851
H            2.14541337180696       -2.82588482349692       -2.91212912796444
H            1.11598312355688       -3.55230709524885       -1.70660823187299
C            2.36353895257214       -0.39967797071491       -2.04261110047954
O           -3.19639312851912       -2.29138462638600       -5.86109463277748
H           -3.85965678516711       -2.98721784453371       -5.66091345761450
O            2.09248269156226        0.03025658195222       -3.14315434752035
N            0.20596788946863       -0.79279760899306       -1.02160323903298
H            1.95043543414815       -1.75812128782210       -0.47773685537555
H           -0.17959463902872       -0.31816772620462       -1.82684191142680
H           -0.46923787647779       -1.48509929411253       -0.72162450242431
N            3.45592350651895        0.02828645242362       -1.31831944495769
C            4.40690411749782        1.03719220454123       -1.80649868058051
H            3.53217021867416       -0.19496071559592       -0.32478880395852
C            3.84067252468458        2.41952277408971       -1.65186260500465
O            4.64731319848779        3.41066129216209       -1.17187081405703
O            2.53991364077722        2.61056042292088       -2.04403118127735
H            2.23014662145250        1.76005740770512       -2.44114494768764
C            4.83540784561928        0.75708202197449       -3.25656711532687
H            5.30263688660552        0.96940893644613       -1.17084175695105
C            6.23599697420885        1.15765220701159       -3.60445647806237
H            4.12862408729291        1.23863797773977       -3.93989437807480
H            4.72618826832538       -0.31729732999292       -3.44105410953510
C            7.01860588038443        2.24451560419583       -3.10070637175456
C            6.78426092760688        3.25651718875051       -2.15878963889970
C            7.76339510261541        4.16559738115684       -1.89115887201226
C            9.00581981993944        4.10477707640990       -2.54198854771040
C            9.26709783109392        3.13228263501079       -3.46739559642015
C            8.26825313378966        2.19243434848147       -3.75341278719320
H            5.68512434664790        3.34015557571091       -1.61793382011584
H            7.57606945860154        4.94627444429230       -1.17277695894300
H            9.76062608037322        4.83769108940707       -2.30991061285822
H           10.21318726732503        3.07624282645210       -3.97515058943356
N            8.23963673284027        1.12096352674837       -4.62570428876476
C            7.01449060420728        0.51057984486025       -4.53293301882583
H            9.00926308752594        0.84755815754054       -5.23947651507016
H            6.71370138958284       -0.35125704993723       -5.10647189545143
