48
Energy =
C    -0.2647365    1.6740662   -1.7246285 
C     0.1914499    1.8102655   -0.4538015 
C    -0.2631181    2.7394145   -2.5691907 
C     0.2009749    3.9335636   -2.1370644 
C     0.6591143    4.0756403   -0.8685853 
C     0.6571624    3.0137285   -0.0158014 
H     0.2044282    0.9430370    0.2027254 
H     0.2059724    4.7731440   -2.8217624 
H     1.0392390    5.0406390   -0.5456619 
H    -0.6234280    0.7086834   -2.0651902 
C     1.2261092    3.1504028    1.3843033 
C     2.7666748    3.0150030    1.4327374 
H     0.7746311    2.3822485    2.0530002 
H     0.9267603    4.1330426    1.8097644 
C     3.2416704    1.6624348    0.9069045 
O    -0.7333852    2.6336575   -3.8828224 
H    -1.0580379    1.7039603   -4.1265182 
O     3.3772938    0.6115961    1.8080303 
N     3.3876683    4.1421525    0.7145205 
H     3.0834248    3.0362533    2.5042869 
H     3.1854354    5.0351466    1.2227216 
H     4.4326994    4.0378411    0.7422641 
N     3.2823578    1.3724340   -0.5019981 
C     4.6246319    0.9080242   -0.9133744 
H     3.0547254    2.2539596   -1.0149242 
C     5.6452210    2.0372799   -0.9958989 
O     6.4689037    2.3044116    0.0906067 
O     5.7495951    2.8304156   -2.1381568 
H     4.8790769    2.6272493   -2.8552634 
C     4.5086872    0.1518484   -2.2554938 
H     5.0308959    0.1839583   -0.1666567 
C     3.7362034    0.9250720   -3.3236269 
H     4.0310398   -0.8242823   -2.0403714 
H     5.5263657   -0.0694594   -2.6486438 
C     2.7788818    0.4207690   -4.1172220 
C     2.2604576   -0.8389823   -4.1539092 
C     1.2799807   -1.1183706   -5.0580782 
C     0.8348646   -0.1510059   -5.9100870 
C     1.3711170    1.0986105   -5.8631030 
C     2.3418355    1.3547261   -4.9588261 
H     2.6025415   -1.6225985   -3.4877070 
H     0.8520799   -2.1172197   -5.1024783 
H     0.0526233   -0.3779761   -6.6302286 
H     1.0257235    1.8806115   -6.5316407 
N     3.0036312    2.5979282   -4.7913674 
C     3.9166141    2.4081073   -3.6581887 
H     2.8614080    3.4544717   -5.3758488 
H     4.3460397    3.4324258   -3.7050952 
