48
Energy =
C    -2.5017016   -0.7027127    3.1948038 
C    -1.2509135   -0.5508012    2.6905790 
C    -3.3600148    0.3518098    3.2232605 
C    -2.9598377    1.5521559    2.7456087 
C    -1.7104361    1.7096032    2.2398316 
C    -0.8463306    0.6583237    2.2129636 
H    -0.5776211   -1.4044492    2.6673455 
H    -3.6537780    2.3850142    2.7730333 
H    -1.4077013    2.6814674    1.8585968 
H    -2.8140119   -1.6700084    3.5731703 
C     0.5409645    0.8291690    1.6337760 
C     0.5443946    0.7774179    0.0900025 
H     1.2319676    0.0471105    2.0225839 
H     0.9571700    1.8011196    1.9832838 
C     1.8870568    1.2271039   -0.4824088 
O    -4.6563139    0.2289108    3.7342854 
H    -4.8771293   -0.6993927    4.0777317 
O     2.9652062    1.4918812    0.3633137 
N     0.2158488   -0.5916492   -0.3442717 
H    -0.2145434    1.4967092   -0.2983905 
H    -0.7827913   -0.7972048   -0.1047000 
H     0.2693927   -0.6562918   -1.3877989 
N     2.0158665    1.4763702   -1.8941912 
C     3.3016594    2.0027190   -2.3921799 
H     1.1923575    1.3365364   -2.5240986 
C     3.1092449    2.8086022   -3.6742078 
O     2.2465880    2.3386592   -4.6585693 
O     3.8322993    3.9757908   -3.9257320 
H     4.4996773    4.1841547   -3.1977416 
C     4.2605560    0.8151707   -2.6099944 
H     3.7341002    2.7030938   -1.6405065 
C     5.6719175    1.2788185   -2.8921930 
H     3.8839205    0.1630353   -3.4285759 
H     4.2720104    0.1833298   -1.6927720 
C     6.2267188    1.5105237   -4.0933095 
C     5.7036017    1.3711742   -5.3388311 
C     6.4854699    1.6907862   -6.4095917 
C     7.7635511    2.1398198   -6.2227474 
C     8.2668288    2.2747623   -4.9629701 
C     7.4738994    1.9519211   -3.9196245 
H     4.6848598    1.0272450   -5.4926828 
H     6.0859482    1.5952578   -7.4165499 
H     8.3781463    2.3966691   -7.0819333 
H     9.2759396    2.6362244   -4.7970218 
N     7.7961478    2.0359337   -2.5383912 
C     6.5721333    1.5881367   -1.9427700 
H     8.6847833    2.3432170   -2.0806272 
H     6.3965002    1.5244976   -0.8706112 
