48
Energy =
C     1.3521845   -4.8138333   -0.3335180 
C     1.0678929   -3.5470256    0.0607249 
C     0.9713357   -5.2485576   -1.5642129 
C     0.2971574   -4.4151813   -2.3882589 
C     0.0023592   -3.1497728   -1.9956366 
C     0.3913442   -2.7061632   -0.7689562 
H     1.3799271   -3.2124381    1.0466659 
H    -0.0060828   -4.7732988   -3.3662842 
H    -0.5398256   -2.4938993   -2.6735344 
H     1.8880850   -5.4769335    0.3363221 
C     0.0636628   -1.3005860   -0.3177733 
C     1.2932705   -0.3543047   -0.3574132 
H    -0.3386558   -1.3622115    0.7168500 
H    -0.7591053   -0.8693626   -0.9328277 
C     1.6367550    0.1437151   -1.7634441 
O     1.2652588   -6.5416300   -2.0074585 
H     1.7301995   -7.1188388   -1.3162895 
O     0.8976196   -0.2772047   -2.8655035 
N     1.0534627    0.7815660    0.5483271 
H     2.1967970   -0.8995088   -0.0007378 
H     0.1596300    1.2616157    0.2821814 
H     0.9478094    0.4355731    1.5309155 
N     2.5614945    1.2323416   -1.9237534 
C     3.6572346    1.2163524   -2.9201623 
H     2.5223142    1.9977084   -1.2133549 
C     3.4684322    2.3536176   -3.9220026 
O     3.1330717    2.0782644   -5.2439132 
O     3.6563255    3.6850180   -3.5460519 
H     3.8303073    3.7765008   -2.5562463 
C     3.8595692   -0.1439259   -3.6439032 
H     4.5983403    1.4575241   -2.3837384 
C     4.3225617   -1.2515381   -2.7230155 
H     4.6292121   -0.0253194   -4.4387673 
H     2.9238417   -0.4260612   -4.1811462 
C     5.5311443   -1.3711885   -2.1489828 
C     6.6226289   -0.5671555   -2.2367402 
C     7.7488646   -0.9261287   -1.5563552 
C     7.7713008   -2.0743957   -0.8142738 
C     6.6686085   -2.8733577   -0.7517650 
C     5.5650958   -2.4941112   -1.4292369 
H     6.6170454    0.3352586   -2.8407146 
H     8.6362343   -0.2993047   -1.6101870 
H     8.6749638   -2.3558941   -0.2789635 
H     6.6737777   -3.7943254   -0.1785254 
N     4.3335137   -3.1934873   -1.5211050 
C     3.5862000   -2.3227015   -2.3815404 
H     4.0428893   -4.0923983   -1.0723503 
H     2.5733842   -2.5154798   -2.7311142 
