48
Energy =
C     0.0562214   -3.8138390   -4.3928769 
C    -0.0044334   -2.5580320   -3.8784548 
C    -0.0344798   -4.0069665   -5.7352067 
C    -0.1826007   -2.9418553   -6.5544161 
C    -0.2410006   -1.6851569   -6.0455323 
C    -0.1532787   -1.4838874   -4.7008586 
H     0.0866966   -2.4138233   -2.8043259 
H    -0.2508317   -3.1087523   -7.6238417 
H    -0.3543152   -0.8436528   -6.7236573 
H     0.1843276   -4.6627431   -3.7295472 
C    -0.2141798   -0.0765912   -4.1338293 
C     1.1684724    0.5590143   -3.8251062 
H    -0.8428933   -0.0711495   -3.2160066 
H    -0.7457826    0.5854795   -4.8527965 
C     1.7425701    0.1152263   -2.4842710 
O     0.0224769   -5.2862927   -6.2968917 
H     0.1488802   -6.0295790   -5.6188125 
O     2.0592837   -1.2165006   -2.2348410 
N     2.1220353    0.3572232   -4.9317270 
H     1.0047301    1.6569018   -3.7123666 
H     2.3737642   -0.6605163   -4.9911177 
H     1.6734096    0.6220679   -5.8397357 
N     2.0616330    1.0892930   -1.4826738 
C     3.4681748    1.6009947   -1.4667922 
H     1.8605319    0.6156082   -0.5710029 
C     3.4884234    3.1293238   -1.2877795 
O     4.6891010    3.8152527   -1.4062725 
O     2.3567186    3.8793246   -0.9607709 
H     1.5305181    3.3161425   -0.8474910 
C     4.3249603    1.1632461   -2.7040331 
H     3.9757474    1.2116048   -0.5532855 
C     5.8161659    1.2807341   -2.4577808 
H     4.0201257    1.7484175   -3.6010550 
H     4.1535323    0.0989478   -2.9695938 
C     6.5770354    0.4130426   -1.7717734 
C     6.2299178   -0.7435719   -1.1499257 
C     7.2042366   -1.4525717   -0.5110962 
C     8.4950617   -1.0004648   -0.5028542 
C     8.8195021    0.1637447   -1.1342216 
C     7.8381042    0.8465936   -1.7602063 
H     5.2039237   -1.1043513   -1.1545738 
H     6.9523227   -2.3817710   -0.0054977 
H     9.2655457   -1.5708275    0.0097893 
H     9.8378452    0.5373047   -1.1357476 
N     7.9605901    2.0709680   -2.4693968 
C     6.6034852    2.2841866   -2.8860732 
H     8.8116510    2.6516037   -2.6485276 
H     6.2512698    3.1658621   -3.4206746 
