48
Energy =
C    -1.1892712    6.2318920   -2.4540603 
C    -0.6942429    4.9772718   -2.6031477 
C    -2.0078142    6.5238049   -1.4088735 
C    -2.3288961    5.5563497   -0.5216057 
C    -1.8368763    4.3008441   -0.6655210 
C    -1.0057163    4.0019808   -1.7038376 
H    -0.0512972    4.7607613   -3.4525530 
H    -2.9867211    5.8001037    0.3049502 
H    -2.1129075    3.5378195    0.0561518 
H    -0.9294969    6.9992226   -3.1756566 
C    -0.4548884    2.5954677   -1.8654096 
C     0.8493060    2.3177793   -1.0671043 
H    -0.2638685    2.3902285   -2.9431962 
H    -1.2285996    1.8601591   -1.5554793 
C     2.0828459    3.0275385   -1.6100148 
O    -2.5349942    7.8057845   -1.2250641 
H    -2.2445308    8.4740645   -1.9310017 
O     2.0450452    3.6562176   -2.6770906 
N     0.6695721    2.5815199    0.3699885 
H     1.0803442    1.2357005   -1.1879756 
H     0.5623770    3.6100761    0.5327079 
H    -0.1900084    2.0973609    0.7175518 
N     3.3635969    2.7989608   -1.0014729 
C     4.4600327    2.6010523   -1.9625179 
H     3.4706361    2.7749218    0.0379737 
C     4.0590347    3.1717548   -3.3287980 
O     4.9119441    3.0664042   -4.4220765 
O     2.9703225    3.7531890   -3.4597536 
H     2.6924619    4.4179150   -2.7679182 
C     4.7763705    1.0922250   -2.0055913 
H     5.3497761    3.1732436   -1.6217656 
C     6.0637181    0.7871776   -2.7412781 
H     3.9179374    0.5433515   -2.4486778 
H     4.8746678    0.7149841   -0.9637545 
C     6.1974317    0.3013691   -3.9872563 
C     5.2509720   -0.0306798   -4.9037498 
C     5.6593636   -0.5104722   -6.1133312 
C     6.9915012   -0.6510800   -6.3870921 
C     7.9241996   -0.3094991   -5.4536739 
C     7.4959006    0.1642915   -4.2646800 
H     4.1926459    0.0954715   -4.6989748 
H     4.9208791   -0.7736270   -6.8665444 
H     7.3082047   -1.0299339   -7.3554113 
H     8.9847880   -0.4100460   -5.6570274 
N     8.2987422    0.5749122   -3.1665654 
C     7.2923357    0.9665515   -2.2242514 
H     9.3401327    0.5807829   -3.0726838 
H     7.4993564    1.3519584   -1.2289105 
