48
Energy =
C     0.1379188    4.9073125   -3.8788561 
C    -0.0814589    4.4209335   -2.6311854 
C     1.0790602    5.8667503   -4.0832220 
C     1.7984912    6.3291354   -3.0370977 
C     1.5886956    5.8419182   -1.7884962 
C     0.6452539    4.8818081   -1.5759708 
H    -0.8374893    3.6527030   -2.4907024 
H     2.5480286    7.0912316   -3.2160111 
H     2.1827725    6.2236479   -0.9636773 
H    -0.4383702    4.5205402   -4.7126136 
C     0.4181764    4.3232706   -0.1836806 
C     1.1758117    2.9949970    0.0863366 
H    -0.6741042    4.1626711   -0.0311318 
H     0.7129153    5.0749021    0.5810890 
C     0.6454003    1.8352548   -0.7473726 
O     1.3221969    6.4003264   -5.3530381 
H     0.7946809    5.9450900   -6.0904555 
O    -0.7294031    1.6390361   -0.7997346 
N     2.6302414    3.1783966   -0.0626711 
H     0.9665807    2.6929558    1.1372884 
H     2.8597980    3.4426708   -1.0501918 
H     2.9507905    3.9642143    0.5492977 
N     1.4723204    0.6954993   -1.0195368 
C     2.3985123    0.7346401   -2.1745280 
H     1.3401505   -0.1482616   -0.4189830 
C     1.9279530    1.6404284   -3.3130975 
O     2.7780182    2.6390056   -3.7719398 
O     0.6838236    1.4828042   -3.9215365 
H     0.1308816    0.7879717   -3.4389925 
C     2.6456362   -0.7009007   -2.6905572 
H     3.3671784    1.1635811   -1.8346337 
C     3.4703147   -1.5154398   -1.7184448 
H     3.1793813   -0.6736299   -3.6676746 
H     1.6704967   -1.2041792   -2.8774972 
C     4.7934036   -1.4208419   -1.5146581 
C     5.7112080   -0.6197903   -2.1147353 
C     7.0129574   -0.7176596   -1.7194829 
C     7.3735646   -1.6045736   -0.7426997 
C     6.4342190   -2.3995978   -0.1554236 
C     5.1530591   -2.2841322   -0.5637331 
H     5.4262494    0.0831977   -2.8926678 
H     7.7676588   -0.0879817   -2.1846862 
H     8.4132859   -1.6771385   -0.4338165 
H     6.7033510   -3.1086858    0.6199668 
N     4.0296781   -3.0109163   -0.0859400 
C     2.9800596   -2.4505662   -0.8857172 
H     3.9826274   -3.7515361    0.6506709 
H     1.9347251   -2.7425492   -0.8194423 
