48
Energy =
C    -0.5011465    4.1003690   -1.2149990 
C     0.2654914    3.2609999   -0.4754081 
C    -0.4130632    5.4449533   -1.0338573 
C     0.4443457    5.9399619   -0.1125698 
C     1.2163623    5.1050071    0.6281399 
C     1.1345252    3.7574102    0.4491247 
H     0.1794239    2.1882941   -0.6332348 
H     0.5044418    7.0144969    0.0226434 
H     1.8995652    5.5238814    1.3622074 
H    -1.1848727    3.6920339   -1.9511932 
C     2.0028915    2.8196604    1.2664021 
C     3.2828083    2.3484678    0.5303092 
H     1.3979780    1.9255091    1.5452693 
H     2.2876787    3.2982491    2.2290077 
C     2.9670346    1.5709208   -0.7434986 
O    -1.1910114    6.3391202   -1.7771873 
H    -1.7948804    5.8928407   -2.4593733 
O     2.3026243    0.3581170   -0.6168006 
N     4.2182662    3.4681145    0.3171468 
H     3.7823569    1.5919754    1.1816682 
H     3.7175040    4.2853523   -0.1021996 
H     4.5779219    3.7953215    1.2454701 
N     3.1574763    2.1190142   -2.0606777 
C     4.5515837    1.9195873   -2.5309268 
H     2.8708313    3.1226536   -2.0381529 
C     5.0085958    3.0046986   -3.5127743 
O     5.5899087    2.6603859   -4.7273028 
O     4.9760577    4.3561587   -3.1721358 
H     4.7269121    4.5019200   -2.2080546 
C     4.6926572    0.4803751   -3.1065202 
H     5.2775510    2.0296351   -1.6905969 
C     3.5252702    0.0539936   -3.9900338 
H     4.7959830   -0.2177000   -2.2522863 
H     5.6362053    0.3785325   -3.6879185 
C     2.6665232   -0.9620200   -3.7708684 
C     2.5920956   -1.8449027   -2.7388253 
C     1.6165687   -2.7975948   -2.7644243 
C     0.7403548   -2.8614372   -3.8107750 
C     0.8333530   -1.9713842   -4.8376275 
C     1.8039411   -1.0351207   -4.7880326 
H     3.2734677   -1.8003862   -1.8969856 
H     1.5331760   -3.5058848   -1.9439657 
H    -0.0348688   -3.6231527   -3.8229104 
H     0.1474654   -2.0083561   -5.6768940 
N     2.0712481   -0.0353155   -5.7576014 
C     3.1998933    0.6229816   -5.1678318 
H     1.5820396    0.1641130   -6.6600903 
H     3.7184871    1.4576160   -5.6297829 
