48
Energy =
C    -4.2270900    3.1313190   -0.1982645 
C    -2.8714852    3.1247997   -0.2637731 
C    -4.9042685    1.9816927    0.0643105 
C    -4.2190419    0.8320550    0.2584086 
C    -2.8635042    0.8194452    0.1941417 
C    -2.1806397    1.9687474   -0.0628333 
H    -2.3438725    4.0510120   -0.4795412 
H    -4.7712177   -0.0784810    0.4637268 
H    -2.3328529   -0.1164370    0.3461493 
H    -4.7681348    4.0577294   -0.3583488 
C    -0.6710199    1.9597457   -0.1557512 
C    -0.1855525    1.9108232   -1.6231646 
H    -0.2502055    1.1057972    0.4184004 
H    -0.2774541    2.8792393    0.3365733 
C     1.3068045    2.1865810   -1.7184135 
O    -6.3006553    1.9534005    0.1381400 
H    -6.7399045    2.8538254   -0.0197042 
O     1.7052363    3.4492745   -2.1330826 
N    -0.5404203    0.6259384   -2.2537613 
H    -0.6665056    2.7436284   -2.1932182 
H    -0.3296230   -0.1782466   -1.6185691 
H    -1.5712672    0.6045725   -2.4430584 
N     2.2634357    1.2078586   -1.2525979 
C     3.7408555    1.3803373   -1.2902035 
H     1.8657484    0.3700849   -0.7790102 
C     4.2574387    2.7739029   -1.6776458 
O     4.7395467    3.6159640   -0.6806320 
O     4.3537314    3.1870568   -3.0082305 
H     3.7880402    2.6032009   -3.6065704 
C     4.3516759    0.2592768   -2.1828627 
H     4.1225782    1.2587322   -0.2509707 
C     4.8444200   -0.9540277   -1.4060518 
H     5.2006014    0.6767222   -2.7650737 
H     3.6045999   -0.0808992   -2.9347257 
C     5.9401382   -1.6888057   -1.6796864 
C     6.8790639   -1.5352730   -2.6520581 
C     7.9021047   -2.4350789   -2.7165985 
C     7.9719648   -3.4672347   -1.8236428 
C     7.0178768   -3.6075094   -0.8612902 
C     6.0171172   -2.7033291   -0.8152149 
H     6.8317884   -0.7246762   -3.3712875 
H     8.6654925   -2.3315783   -3.4842616 
H     8.7898512   -4.1810295   -1.8830691 
H     7.0551696   -4.4244765   -0.1486960 
N     4.9256140   -2.6846172    0.0905152 
C     4.2085475   -1.5328115   -0.3676639 
H     4.7070072   -3.3381745    0.8771203 
H     3.2769036   -1.1953873    0.0708420 
