48
 energy: -9.293338521207 gnorm: 0.000592822307 xtb: 6.6.0 (2ccbbd7)
C           -1.38131466830301       -3.54619979573280       -4.43683866116655
C           -1.19618170044535       -3.07711891819563       -3.15765102184620
C           -0.77827932776674       -2.90975249676532       -5.52125360838750
C            0.01188514562054       -1.78991423131144       -5.26868312765682
C            0.18748006310805       -1.32934219397241       -3.98692811094856
C           -0.41456344099310       -1.95675088440311       -2.90638088172510
H           -1.65942465320191       -3.58697762005745       -2.33033342002538
H            0.47744218051783       -1.29531721831268       -6.10247661689507
H            0.79183824351431       -0.45875434761258       -3.81472662151604
H           -1.99200004568936       -4.41334726429408       -4.61371763878696
C           -0.19762659093899       -1.51153680977487       -1.48667102472951
C           -0.08473918011705        0.00836152298698       -1.24866350105186
H            0.70165090254208       -2.00102834587524       -1.09899761302991
H           -1.02560132220646       -1.89780579401304       -0.88245321493706
C            1.28511543217378        0.53213886518154       -1.61080078047197
O           -0.94080300634284       -3.35570141079448       -6.81892130652418
H           -1.52715103785791       -4.14269528955045       -6.83358608318211
O            1.46732376501209        0.96320949709670       -2.72943633581904
N           -1.09578306781324        0.77616357483845       -1.96454059170367
H           -0.23422580144263        0.21388344244779       -0.17573975199046
H           -0.73054151233622        1.02309496633479       -2.88034438432147
H           -1.94420147800262        0.23719205696928       -2.09133644801419
N            2.26777052263387        0.48125207158704       -0.64820551568364
C            3.66463146022018        0.85961694122693       -0.88838397627508
H            2.04727730698880        0.17458284272630        0.30062699758386
C            3.83858409840829        2.36566672540195       -0.86959734772139
O            4.73526799396992        2.82628160027447       -0.19720074904367
O            2.97945973395404        3.06754454366903       -1.64062644702222
H            2.36533656005198        2.42890572218501       -2.07801500512934
C            4.20997268162692        0.25066263410262       -2.17764748285832
H            4.26267465686749        0.46694928189818       -0.05202132465435
C            4.29996735445965       -1.23458213525889       -2.10329929643709
H            5.19800589705741        0.66828289878738       -2.39740120490179
H            3.56394001339277        0.53980962323032       -3.01166766216477
C            5.31716250473752       -1.97400614394359       -1.43150035233632
C            6.47653803326276       -1.58815074355705       -0.73704574569232
C            7.25722858231249       -2.56048141563397       -0.17610254252416
C            6.91610423936024       -3.91875319323798       -0.28383385571223
C            5.78982075432066       -4.31638593796803       -0.95116541562870
C            4.97557810026276       -3.33624434192155       -1.53235587976310
H            6.73005904317375       -0.54609221251585       -0.65362823737058
H            8.14940508951318       -2.28174523872258        0.35972598833517
H            7.55360139953693       -4.65926574279012        0.17012508051791
H            5.51928535455236       -5.35365941762009       -1.03418801935156
N            3.78486775543293       -3.41417904548376       -2.23338404382912
C            3.38176232760209       -2.14503550218121       -2.56453607830175
H            3.29351924953727       -4.28259931059897       -2.45263076910291
H            2.46460753890021       -1.90807539005410       -3.07614044091501
