48
Energy =
C    -3.1478201    3.5230894   -2.2034353 
C    -2.0248077    3.3640244   -2.9483027 
C    -3.5688000    2.5258980   -1.3803114 
C    -2.8592266    1.3768869   -1.3055805 
C    -1.7366102    1.2116934   -2.0498509 
C    -1.3147404    2.2039065   -2.8807477 
H    -1.6970469    4.1711001   -3.5979544 
H    -3.1983212    0.5928366   -0.6375435 
H    -1.1742104    0.2859386   -1.9649733 
H    -3.7073156    4.4499772   -2.2662411 
C    -0.0534019    2.0337018   -3.6995210 
C     1.1709014    2.7164371   -3.0354074 
H    -0.2240347    2.4672934   -4.7095232 
H     0.1632224    0.9539796   -3.8627560 
C     1.5373780    2.0641196   -1.7191687 
O    -4.7254388    2.6554636   -0.6041268 
H    -5.1874380    3.5532517   -0.6973380 
O     0.8246353    2.3614431   -0.5642403 
N     2.3176551    2.7049392   -3.9682291 
H     0.9282618    3.7735306   -2.7759498 
H     2.5084342    1.7137996   -4.2511313 
H     2.0061425    3.1440718   -4.8690688 
N     2.4730674    0.9841119   -1.6963773 
C     3.8993324    1.2928515   -1.9345776 
H     2.1019868    0.0138980   -1.5962613 
C     4.1831976    2.7018082   -2.5278724 
O     3.3837065    3.3365840   -3.5240332 
O     5.3115172    3.4106709   -2.1042822 
H     5.8814046    2.8918009   -1.4539722 
C     4.5241289    0.1590099   -2.7794418 
H     4.3888688    1.2760174   -0.9363772 
C     6.0285059    0.2853633   -2.8785699 
H     4.0756753    0.1305616   -3.7936973 
H     4.2852363   -0.8209861   -2.3100447 
C     6.7272836    0.9254861   -3.8306312 
C     6.2948429    1.5898245   -4.9334797 
C     7.2236339    2.1709943   -5.7452891 
C     8.5551532    2.0815082   -5.4471315 
C     8.9660842    1.4124396   -4.3327164 
C     8.0281298    0.8455570   -3.5450698 
H     5.2378506    1.6770340   -5.1668115 
H     6.9014774    2.7163876   -6.6288655 
H     9.2881013    2.5526454   -6.0969691 
H    10.0177518    1.3390885   -4.0778993 
N     8.2412214    0.1236627   -2.3397698 
C     6.8946414   -0.1979700   -1.9706353 
H     9.1390824   -0.1080967   -1.8562282 
H     6.6193655   -0.7467897   -1.0733366 
