48
Energy =
C     6.8439195   -2.1288911    0.0994813 
C     5.6695743   -1.9438194    0.7552152 
C     7.8072296   -1.1718775    0.1434118 
C     7.6013936   -0.0476119    0.8610064 
C     6.4261819    0.1490024    1.5072654 
C     5.4444610   -0.7927851    1.4477113 
H     4.9091465   -2.7183400    0.7123969 
H     8.3884587    0.6972561    0.9012520 
H     6.2769089    1.0692519    2.0668091 
H     7.0082150   -3.0400692   -0.4649385 
C     4.1114700   -0.5458412    2.1271101 
C     3.0494858    0.1028838    1.1970711 
H     4.2681774    0.1180917    3.0077852 
H     3.7198173   -1.4993153    2.5433914 
C     3.5527418    1.3804202    0.5195085 
O     9.0105768   -1.3075793   -0.5519912 
H     9.1081323   -2.1956396   -1.0324770 
O     4.2012120    2.3294120    1.3035500 
N     2.5275825   -0.8879526    0.2373958 
H     2.2039766    0.4486098    1.8364675 
H     3.3025750   -1.2631397   -0.3555073 
H     2.1142224   -1.6982281    0.7572141 
N     3.0534641    1.8098586   -0.7612098 
C     4.1494894    2.0339008   -1.7312698 
H     2.3575981    1.1219191   -1.1309237 
C     3.6366804    2.8631860   -2.9039621 
O     2.4267140    2.5236487   -3.4991149 
O     4.3895042    3.8961157   -3.4648353 
H     5.2723159    4.0331978   -2.9963495 
C     4.7371476    0.6793969   -2.2124052 
H     4.9534849    2.6355632   -1.2450120 
C     5.8969187    0.8606561   -3.1701626 
H     3.9429241    0.0621384   -2.6883063 
H     5.1009206    0.1001245   -1.3370172 
C     5.8378299    0.9463565   -4.5109232 
C     4.7683197    0.8757244   -5.3454062 
C     4.9823257    0.9981500   -6.6867158 
C     6.2477435    1.1823397   -7.1706888 
C     7.3072428    1.2461883   -6.3154975 
C     7.0694110    1.1252993   -4.9925305 
H     3.7601183    0.7343825   -4.9684495 
H     4.1399003    0.9549616   -7.3733737 
H     6.4088719    1.2819776   -8.2413457 
H     8.3173402    1.3930180   -6.6826429 
N     8.0251263    1.1630683   -3.9430166 
C     7.1825609    0.9876930   -2.7958532 
H     9.0624107    1.2935717   -3.9923174 
H     7.5443371    0.9405523   -1.7700547 
