48
Energy =
C    -2.3902813    5.0869917   -5.5096390 
C    -1.8796797    4.3416489   -4.4968962 
C    -1.5625458    5.8073941   -6.3132789 
C    -0.2277617    5.7761759   -6.0973568 
C     0.2882996    5.0328958   -5.0861282 
C    -0.5366112    4.3129060   -4.2772275 
H    -2.5531958    3.7678571   -3.8654098 
H     0.4222254    6.3534486   -6.7456528 
H     1.3649005    5.0185901   -4.9296342 
H    -3.4619455    5.1043641   -5.6756523 
C     0.0413066    3.4710759   -3.1624882 
C     0.6540140    2.1498487   -3.6887433 
H    -0.7252611    3.2484470   -2.3870384 
H     0.8257595    4.0660555   -2.6409536 
C     1.5042882    1.4555819   -2.6419971 
O    -2.0565088    6.5845759   -7.3663255 
H    -3.0659293    6.5577662   -7.4588268 
O     1.5873862    1.9526406   -1.3441305 
N    -0.3997584    1.2420727   -4.1692789 
H     1.3565763    2.3802469   -4.5260356 
H    -1.1044830    1.0877566   -3.4095534 
H    -0.9003016    1.6794420   -4.9782578 
N     2.4700020    0.4871270   -3.0612833 
C     3.8844859    0.8671540   -2.9002350 
H     2.1348802   -0.4227021   -3.4529598 
C     4.2077645    2.1404060   -3.6867349 
O     4.5223164    2.0663790   -5.0382753 
O     4.0900030    3.4038735   -3.1057812 
H     3.7232624    3.3463084   -2.1646597 
C     4.7779013   -0.3275330   -3.3009676 
H     4.0685299    1.0848489   -1.8234482 
C     6.2290398   -0.0973354   -2.9319364 
H     4.6653650   -0.5402321   -4.3861412 
H     4.4247290   -1.2379184   -2.7673409 
C     7.2430490    0.2267494   -3.7532008 
C     7.2572731    0.4108339   -5.0991869 
C     8.4376018    0.7412125   -5.6969800 
C     9.5752581    0.8789636   -4.9516552 
C     9.5395693    0.6875487   -3.6028200 
C     8.3597751    0.3624805   -3.0337496 
H     6.3587745    0.3069288   -5.6990519 
H     8.4714007    0.8997674   -6.7723290 
H    10.5113118    1.1448438   -5.4365167 
H    10.4329970    0.7944766   -2.9969486 
N     8.1115044    0.1239366   -1.6556031 
C     6.7084229   -0.1656578   -1.6766563 
H     8.7754068    0.1512584   -0.8476416 
H     6.1169339   -0.4020118   -0.7947075 
