48
Energy =
C     1.1241120    5.2735967   -0.7389588 
C     0.7870004    4.0346491   -1.1753405 
C     0.5657350    5.7736250    0.3955427 
C    -0.3274827    5.0276742    1.0846317 
C    -0.6649179    3.7858724    0.6544200 
C    -0.1058991    3.2791862   -0.4788706 
H     1.2429482    3.6520430   -2.0846470 
H    -0.7653580    5.4366444    1.9875439 
H    -1.3799641    3.2009347    1.2258991 
H     1.8453315    5.8591448   -1.3000639 
C    -0.4562461    1.8833651   -0.9526793 
C     0.4705958    0.7873449   -0.3653041 
H    -0.4080436    1.8484711   -2.0638013 
H    -1.5147777    1.6552774   -0.6989563 
C     1.9435816    1.0300927   -0.6860569 
O     0.8901485    7.0482265    0.8740624 
H     1.5806560    7.5313139    0.3088812 
O     2.8527168    1.3135193    0.3329572 
N     0.2345707    0.6203960    1.0788897 
H     0.2206278   -0.1770899   -0.8609351 
H     0.5929438    1.4601282    1.5937430 
H    -0.7900441    0.5432365    1.2742694 
N     2.3959012    1.0006393   -2.0537921 
C     3.8116750    1.3147527   -2.3337873 
H     1.7460551    0.6714262   -2.8037075 
C     3.9669915    2.7779817   -2.7388569 
O     4.0039074    3.1319351   -4.0839324 
O     4.0455628    3.7918272   -1.7859366 
H     3.8755716    3.4396425   -0.8525459 
C     4.3261250    0.3379391   -3.4130425 
H     4.4437859    1.1808576   -1.4250247 
C     5.8252019    0.4420525   -3.5935119 
H     3.8100428    0.5395092   -4.3794679 
H     4.0594279   -0.7033813   -3.1284830 
C     6.7653844   -0.1524481   -2.8426886 
C     6.6307235   -0.9910997   -1.7830636 
C     7.7611169   -1.4530473   -1.1754520 
C     8.9940865   -1.0718924   -1.6282699 
C     9.1042682   -0.2247339   -2.6908753 
C     7.9715541    0.2162833   -3.2769831 
H     5.6527101   -1.2886592   -1.4152432 
H     7.6813614   -2.1241465   -0.3232302 
H     9.8902192   -1.4414027   -1.1357549 
H    10.0744411    0.0936526   -3.0573229 
N     7.8644873    1.1130854   -4.3732982 
C     6.4391560    1.2142283   -4.5081407 
H     8.6210016    1.5696839   -4.9332222 
H     5.9269346    1.8610584   -5.2217520 
