48
Energy =
C     3.1374221    3.3346803    2.9702213 
C     2.1555081    2.4626795    2.6259748 
C     3.0293520    4.6498206    2.6418823 
C     1.9410470    5.0818805    1.9646584 
C     0.9561042    4.2140438    1.6192191 
C     1.0547540    2.8986388    1.9544282 
H     2.2577785    1.4089019    2.8815539 
H     1.8706018    6.1311501    1.6993694 
H     0.0921653    4.5791853    1.0695672 
H     4.0097556    2.9775377    3.5066248 
C    -0.0345874    1.9275443    1.5521412 
C     0.1180228    1.4689122    0.0830674 
H    -1.0222121    2.4186745    1.6916614 
H    -0.0341935    1.0357279    2.2189896 
C     1.3533965    0.6092585   -0.1460016 
O     4.0203611    5.5744609    2.9874454 
H     4.8076650    5.1707091    3.4819673 
O     1.9735345   -0.0675946    0.9033686 
N    -1.0928941    0.7519507   -0.3450912 
H     0.2440740    2.3685628   -0.5634342 
H    -1.2448572   -0.0773060    0.2782236 
H    -1.9266685    1.3779410   -0.2535963 
N     1.9155166    0.5085925   -1.4566451 
C     3.3352083    0.8678048   -1.6000132 
H     1.3137980    0.1845180   -2.2467278 
C     3.4820480    2.2914744   -2.1248698 
O     3.8746784    2.5169562   -3.4396996 
O     3.2411246    3.3927549   -1.3037038 
H     2.9373142    3.1109325   -0.3832038 
C     4.0305732   -0.1672340   -2.5103886 
H     3.8428266    0.8558397   -0.6091940 
C     3.9026927   -1.5736918   -1.9643622 
H     5.1047748    0.0902563   -2.6356226 
H     3.5772332   -0.1189258   -3.5268199 
C     4.5551043   -2.0971122   -0.9141304 
C     5.4889358   -1.5390745   -0.1024776 
C     6.0031825   -2.2948673    0.9112425 
C     5.5805288   -3.5825258    1.0945020 
C     4.6413013   -4.1217576    0.2664280 
C     4.1486456   -3.3540616   -0.7280363 
H     5.8189847   -0.5160380   -0.2471290 
H     6.7488388   -1.8719293    1.5807186 
H     5.9904673   -4.1785829    1.9063384 
H     4.2911837   -5.1398871    0.4002253 
N     3.1707549   -3.7201560   -1.6904264 
C     3.0635025   -2.5072753   -2.4471374 
H     2.6737214   -4.6312509   -1.8191298 
H     2.3770719   -2.3608413   -3.2780440 
