48
 energy: -9.062740414803 gnorm: 0.000566342768 xtb: 6.6.0 (2ccbbd7)
C            3.37108252297490       -4.32793180554290       -0.55504845951872
C            2.55130145639819       -3.22522693815036       -0.59761818714366
C            3.93884870145189       -4.74310777899643        0.64994361175377
C            3.65211231681640       -4.01173690930617        1.80243294221747
C            2.83023986957210       -2.91119034735078        1.75186719258315
C            2.26430861332676       -2.50398926332280        0.55233391460849
H            2.12591303195025       -2.90664100740368       -1.53391501994215
H            4.09124772999499       -4.33069077308760        2.73078490927345
H            2.62369463171196       -2.35110437112434        2.64784410789988
H            3.58583704867583       -4.87974991576569       -1.45263527023112
C            1.43309213483559       -1.26186734348511        0.47487482178791
C            2.22685947172030       -0.06919209023406       -0.06091118274555
H            1.03390871951179       -1.00729286304645        1.46090293781047
H            0.55812361418668       -1.43826807226920       -0.15927525967746
C            1.34243346039663        1.14126407156573       -0.27166270245194
O            4.76766863604482       -5.84651375751042        0.72708226827865
H            4.85119767462003       -6.26757133201595       -0.15598800822164
O            0.30829758322798        1.23432425697369        0.35907907941227
N            3.33562910747559        0.28824878587102        0.81106084771451
H            2.65306554432770       -0.35798131887014       -1.03118531920167
H            2.96657697099793        0.66955552025288        1.67144897026313
H            3.88019514065349       -0.53107238338789        1.04540379987245
N            1.75780444986244        2.12998356759730       -1.14189145503666
C            3.12097309877120        2.16371131851889       -1.68452557035433
H            1.30824198888258        3.03991156632012       -1.06353727444714
C            3.54186242767987        3.55278045092297       -2.05228896798257
O            4.85367059448944        3.88889500836490       -1.89308244449962
O            2.59426156602972        4.40308525730309       -2.57085954157561
H            1.76834975076414        3.90664556485562       -2.77588699324421
C            3.30422164079283        1.20499873060458       -2.88398483650474
H            3.77300394469018        1.83452267834585       -0.86184610906563
C            4.52095125072117        0.34867061650690       -2.75218213483266
H            3.36257357483789        1.78365295848021       -3.81177644873394
H            2.41640336487732        0.57288999628841       -2.98856235861263
C            5.79971858735743        0.77092480058096       -2.28265128561027
C            6.29513434082466        2.00800005728992       -1.84983172205070
C            7.58964426069046        2.09299941299502       -1.43400283924247
C            8.42595166524008        0.96383041189263       -1.43422449141599
C            7.96763527234862       -0.25609769586813       -1.85212418237015
C            6.63849548328953       -0.36095124754894       -2.28241095046830
H            5.54841561753727        2.99068622043647       -1.85950209692100
H            7.97498863303445        3.04212232012577       -1.10060370264929
H            9.44524759482122        1.06298619440230       -1.09960242361064
H            8.59977400248183       -1.12582451773246       -1.85530852226648
N            5.89064024487761       -1.43009513063909       -2.74380965028135
C            4.61997298576975       -0.99276954162288       -3.02864276225869
H            6.24498303270413       -2.38155488714398       -2.85677996466067
H            3.82518631284330       -1.61323039372483       -3.40940825433469
