48
Energy =
C    -0.2008614   -3.2777306   -4.3819041 
C     0.5664492   -3.3832803   -3.2680346 
C    -1.4250710   -2.6896625   -4.3146720 
C    -1.8746938   -2.2154960   -3.1303662 
C    -1.1120950   -2.3210735   -2.0132362 
C     0.1153605   -2.9060941   -2.0746075 
H     1.5457129   -3.8500183   -3.3358998 
H    -2.8523056   -1.7474440   -3.0868935 
H    -1.4906822   -1.9287321   -1.0724393 
H     0.1682835   -3.6619168   -5.3266337 
C     0.9932693   -2.9905670   -0.8427546 
C     2.0573321   -1.8686118   -0.8261020 
H     1.4940329   -3.9827431   -0.8260276 
H     0.3813114   -2.9458216    0.0863073 
C     1.4478694   -0.4733732   -0.5773408 
O    -2.2364396   -2.5566183   -5.4460689 
H    -1.8410454   -2.9573379   -6.2895891 
O     0.2247511   -0.3822231    0.0834701 
N     3.0839354   -2.1774765    0.1801008 
H     2.5435629   -1.8754002   -1.8198684 
H     2.6330301   -2.2684894    1.1234776 
H     3.5368164   -3.0963928   -0.0376830 
N     2.0299041    0.7723037   -1.0312107 
C     3.4167038    0.7144471   -1.5610984 
H     1.9851717    1.3923794   -0.1882396 
C     4.2497487    1.9409619   -1.1698716 
O     3.6316356    3.1678427   -0.9575374 
O     5.6448873    1.8850223   -1.1288907 
H     5.9961028    0.9461786   -1.2517381 
C     3.3561615    0.5826202   -3.1014558 
H     3.9724671   -0.1490344   -1.1382681 
C     2.6414445    1.7513562   -3.7531532 
H     2.8187409   -0.3460949   -3.3810163 
H     4.3827238    0.4763241   -3.5135880 
C     3.1972036    2.8726056   -4.2425684 
C     4.5010800    3.2504557   -4.2958379 
C     4.8028521    4.4635485   -4.8413650 
C     3.8097488    5.2725320   -5.3197415 
C     2.5077585    4.8748350   -5.2523581 
C     2.2340989    3.6703515   -4.7088136 
H     5.2932211    2.6213581   -3.9004988 
H     5.8382705    4.7935591   -4.8852871 
H     4.0583713    6.2411516   -5.7464995 
H     1.7072297    5.5091164   -5.6181541 
N     0.9538892    3.0816720   -4.5306742 
C     1.3061611    1.8462608   -3.8950494 
H     0.0110983    3.4454332   -4.8009639 
H     0.5863929    1.1076971   -3.5459527 
