48
Energy =
C     3.2036094    1.6859651    5.9719238 
C     2.9390021    1.0632553    4.7953935 
C     4.4236525    2.2456853    6.1899941 
C     5.3711738    2.1787071    5.2275721 
C     5.1121695    1.5576837    4.0490038 
C     3.8938962    0.9926979    3.8271497 
H     1.9574402    0.6246883    4.6352300 
H     6.3394307    2.6300794    5.4142246 
H     5.8859057    1.5155012    3.2868319 
H     2.4367697    1.7361188    6.7374390 
C     3.5996504    0.3156757    2.5066003 
C     3.2938631    1.3293989    1.3761575 
H     2.7546097   -0.4020562    2.6063802 
H     4.4798364   -0.3047648    2.2218218 
C     3.1765286    0.6442285    0.0134619 
O     4.7288736    2.8953788    7.3903352 
H     3.9679574    2.9013184    8.0608410 
O     3.3696838   -0.7280778   -0.1052766 
N     2.0719698    2.0932540    1.6814790 
H     4.1509699    2.0344532    1.2958941 
H     1.2869258    1.4377884    1.9120371 
H     2.2315980    2.6975087    2.5224920 
N     2.7712240    1.3750519   -1.1547366 
C     3.8711983    2.1997779   -1.7142747 
H     1.9192551    1.9279809   -0.9052168 
C     3.3805788    3.5504000   -2.2476412 
O     3.6871507    3.9601135   -3.5382221 
O     2.7114653    4.4493147   -1.4165376 
H     2.6177274    4.1002142   -0.4737878 
C     4.6420986    1.3612870   -2.7648731 
H     4.6080151    2.4841119   -0.9298838 
C     3.7545174    0.7893724   -3.8585308 
H     5.1294839    0.5078693   -2.2432642 
H     5.4665954    1.9657623   -3.1973877 
C     3.6925835    1.1642358   -5.1501358 
C     4.3687037    2.1368163   -5.8164550 
C     4.1238321    2.3055266   -7.1478912 
C     3.2225051    1.5045409   -7.7912915 
C     2.5596618    0.5305620   -7.1068911 
C     2.8151380    0.3862325   -5.7896592 
H     5.0789327    2.7830263   -5.3114515 
H     4.6442347    3.0858908   -7.6981314 
H     3.0313293    1.6463645   -8.8520699 
H     1.8426167   -0.1154507   -7.6019131 
N     2.2459224   -0.5717874   -4.9108052 
C     2.9109624   -0.2452796   -3.6835065 
H     1.5403231   -1.3186341   -5.1055326 
H     2.7599238   -0.7720749   -2.7420751 
