48
Energy =
C     6.5520150   -0.0338857    1.9720435 
C     5.2317588    0.0325257    2.2764297 
C     7.0650975   -1.1514020    1.3920273 
C     6.2487334   -2.1944600    1.1152388 
C     4.9260755   -2.1309292    1.4115087 
C     4.4112245   -1.0186775    2.0042475 
H     4.8343660    0.9400688    2.7246509 
H     6.6642677   -3.0776881    0.6437758 
H     4.2822987   -2.9704386    1.1577805 
H     7.1935301    0.8139851    2.1862716 
C     2.9314724   -0.9235168    2.3029173 
C     2.1829586   -0.1275522    1.2102654 
H     2.7933567   -0.4300184    3.2899184 
H     2.4875198   -1.9409989    2.3974178 
C     2.2650858   -0.8165342   -0.1486008 
O     8.4229448   -1.2494563    1.0664366 
H     8.9633202   -0.4284657    1.3172229 
O     1.8685740   -2.1447540   -0.2672350 
N     0.7806880    0.0665404    1.6059652 
H     2.6598466    0.8747451    1.1062570 
H     0.3171751   -0.8657615    1.7351498 
H     0.7349640    0.5747821    2.5201314 
N     2.5080412   -0.0636353   -1.3485670 
C     3.9207881    0.3863186   -1.4503582 
H     1.8237376    0.7285240   -1.3561912 
C     4.0774655    1.8891532   -1.2214859 
O     4.8004162    2.3360083   -0.1223270 
O     3.4968924    2.8310626   -2.0702429 
H     2.9724879    2.3939254   -2.8131785 
C     4.4650520   -0.0425661   -2.8266075 
H     4.5706463   -0.0922445   -0.6784127 
C     4.7494714   -1.5283076   -2.8543573 
H     5.3906533    0.5197282   -3.0794310 
H     3.7229391    0.1966858   -3.6201211 
C     5.9108708   -2.1338944   -2.5587762 
C     7.1049845   -1.5999704   -2.1942288 
C     8.1385674   -2.4480865   -1.9244662 
C     7.9653018   -3.8011713   -2.0179311 
C     6.7552573   -4.3148755   -2.3785982 
C     5.7491170   -3.4555441   -2.6432033 
H     7.2427373   -0.5277857   -2.0966156 
H     9.0997183   -2.0451071   -1.6124151 
H     8.7927482   -4.4691762   -1.7923113 
H     6.5961342   -5.3855236   -2.4473600 
N     4.4145512   -3.7823172   -3.0005449 
C     3.8307813   -2.4766425   -3.1058948 
H     3.9746834   -4.7187785   -3.1522984 
H     2.7763062   -2.2855924   -3.2986185 
