48
Energy =
C    -3.2881038   -2.0294096    1.3442957 
C    -2.1220112   -2.0704260    0.6511831 
C    -3.3492171   -1.3883795    2.5421195 
C    -2.2414486   -0.7919749    3.0380987 
C    -1.0728345   -0.8294727    2.3492011 
C    -1.0055865   -1.4727553    1.1514610 
H    -2.0898595   -2.5825621   -0.3070553 
H    -2.3036015   -0.2836801    3.9940518 
H    -0.1937335   -0.3429439    2.7637951 
H    -4.1715956   -2.5094159    0.9374923 
C     0.2922603   -1.4996709    0.3750682 
C     0.5544215   -0.1712653   -0.3778878 
H     0.3065375   -2.3480644   -0.3451341 
H     1.1273171   -1.7019891    1.0846331 
C     1.9582051   -0.1070277   -0.9631661 
O    -4.5350856   -1.3260752    3.2811093 
H    -5.3177250   -1.8010873    2.8448274 
O     2.8776500   -1.1233180   -0.7082483 
N    -0.4538924    0.0324389   -1.4332958 
H     0.5068901    0.6745168    0.3475344 
H    -0.5123850   -0.8196652   -2.0406541 
H    -1.3978514    0.1695345   -0.9994609 
N     2.3656805    1.0528398   -1.7074392 
C     3.7918666    1.1761990   -2.0772944 
H     1.6521313    1.7939102   -1.8910574 
C     4.2421514    2.6280530   -2.2074053 
O     5.4575342    3.0027654   -1.6495685 
O     3.5037301    3.5942179   -2.8929350 
H     2.7089727    3.1976527   -3.3693949 
C     4.0868137    0.3390982   -3.3436780 
H     4.4255340    0.7735591   -1.2501628 
C     3.2635304    0.7570320   -4.5418745 
H     3.8743340   -0.7316915   -3.1223455 
H     5.1713289    0.3830491   -3.5835801 
C     3.6202315    1.6138461   -5.5121654 
C     4.7723930    2.3131304   -5.6782105 
C     4.8770397    3.1441703   -6.7547570 
C     3.8402507    3.2641753   -7.6384911 
C     2.6906919    2.5564108   -7.4482553 
C     2.6119719    1.7403278   -6.3762988 
H     5.5905647    2.2347294   -4.9682665 
H     5.7867143    3.7204880   -6.9052597 
H     3.9299114    3.9319727   -8.4914029 
H     1.8553886    2.6460944   -8.1340633 
N     1.5052532    0.9408498   -5.9854437 
C     2.0095318    0.3397146   -4.7861226 
H     0.5741072    0.8253258   -6.4461204 
H     1.4473940   -0.3459278   -4.1554548 
