48
Energy =
C     3.2661536   -2.0298266    0.5851949 
C     2.0806961   -1.3751861    0.5455805 
C     4.3949907   -1.4336552    0.1238600 
C     4.3321718   -0.1839750   -0.3838129 
C     3.1437612    0.4815176   -0.4761149 
C     2.0037015   -0.1126838    0.0462222 
H     1.1876701   -1.8734606    0.9137428 
H     5.2478629    0.2889415   -0.7173453 
H     3.2357468    1.7454203   -0.8366128 
H     3.3084708   -3.0349964    0.9895212 
C     0.6307201    0.5389422   -0.0722961 
C     0.6212925    2.0331455   -0.4947129 
H     0.1076392    0.4463530    0.9043646 
H     0.0467020   -0.0422982   -0.8190533 
C     1.4937448    2.3142840   -1.7157117 
O     5.6337898   -2.0841448    0.1579006 
H     5.6022461   -3.0057650    0.5793575 
O     1.4249003    3.4259751   -2.2633133 
N    -0.7637912    2.4774531   -0.7105867 
H     1.0668803    2.6354443    0.3294894 
H    -1.1604340    1.9972354   -1.5525117 
H    -1.3568796    2.2324395    0.1154181 
N     2.6530894    1.4701427   -1.9284761 
C     3.5786805    1.9497397   -3.0042629 
H     2.1335379    0.6486961   -2.3862222 
C     2.9246769    3.0798003   -3.7927724 
O     3.3568044    3.4039349   -5.0756206 
O     2.0530979    3.7635957   -3.2469177 
H     2.2214085    4.0275508   -2.2943832 
C     4.1109971    0.7909241   -3.9021001 
H     4.4718797    2.4209470   -2.5342050 
C     3.0405773    0.0578282   -4.6989753 
H     4.6756914    0.0751019   -3.2701199 
H     4.8581289    1.2043624   -4.6169012 
C     2.4727916   -1.1241713   -4.3949312 
C     2.6947921   -1.9558233   -3.3437134 
C     1.9641006   -3.1030545   -3.2552601 
C     1.0343053   -3.4044243   -4.2107125 
C     0.8307237   -2.5595542   -5.2606639 
C     1.5658023   -1.4296073   -5.3246612 
H     3.4306698   -1.7259725   -2.5830497 
H     2.1234242   -3.7805417   -2.4197433 
H     0.4556794   -4.3214693   -4.1337822 
H     0.0969442   -2.7831862   -6.0276253 
N     1.5026428   -0.4237710   -6.3232772 
C     2.4885647    0.5019575   -5.8446310 
H     0.9043271   -0.3757383   -7.1801115 
H     2.7493624    1.4306107   -6.3491939 
