48
Energy =
C    -0.8777309    1.0230788   -8.1224344 
C    -0.4359007    0.2606453   -7.0905788 
C    -1.1493813    2.3417363   -7.9309745 
C    -0.9748752    2.8890533   -6.7065298 
C    -0.5342532    2.1312576   -5.6705952 
C    -0.2653345    0.8095936   -5.8560057 
H    -0.2153438   -0.7897061   -7.2621719 
H    -1.1899388    3.9429042   -6.5675307 
H    -0.3941020    2.5914256   -4.6952715 
H    -1.0106037    0.5756560   -9.1013783 
C     0.2420401   -0.0304609   -4.7044588 
C     1.7321203    0.2413782   -4.3965545 
H     0.0976405   -1.1156765   -4.9073697 
H    -0.3744719    0.1927076   -3.8050271 
C     2.1342543   -0.4092660   -3.0840718 
O    -1.6067227    3.1548490   -8.9733888 
H    -1.7076355    2.6710454   -9.8588236 
O     1.9143520   -1.7675270   -2.8854205 
N     2.5891619   -0.2357693   -5.4980819 
H     1.8832203    1.3380035   -4.2615650 
H     2.4001023   -1.2515914   -5.6821381 
H     2.3671479    0.2914037   -6.3756788 
N     2.5497377    0.3846764   -1.9643539 
C     3.9093018    0.9691330   -1.9079302 
H     1.8512724    0.5468834   -1.2047933 
C     3.8560799    2.4913898   -2.0202950 
O     2.9935135    3.0889661   -2.9302614 
O     4.7109277    3.3104475   -1.2825903 
H     5.3437814    2.7831395   -0.6992368 
C     4.8640635    0.3507918   -2.9622368 
H     4.3159088    0.7355809   -0.8988779 
C     6.3006921    0.7559825   -2.7196994 
H     4.5541476    0.6573148   -3.9891479 
H     4.7875485   -0.7594696   -2.9410708 
C     7.1671233    0.1714180   -1.8778143 
C     7.0062528   -0.9150353   -1.0793051 
C     8.0533054   -1.3034837   -0.2961087 
C     9.2295110   -0.6058456   -0.3190861 
C     9.3654334    0.4855962   -1.1249084 
C     8.3166481    0.8475325   -1.8930907 
H     6.0711918   -1.4675887   -1.0546777 
H     7.9514762   -2.1714683    0.3512939 
H    10.0587029   -0.9206472    0.3097871 
H    10.2890593    1.0539911   -1.1503712 
N     8.2416929    1.9556104   -2.7784157 
C     6.8993348    1.8289001   -3.2671193 
H     8.9698748    2.6694241   -3.0115634 
H     6.4203779    2.5335903   -3.9468465 
