48
 energy: -8.967065063880 gnorm: 0.000677666222 xtb: 6.6.0 (2ccbbd7)
C           -3.10858995511178       -1.28145047434477        1.26910135511081
C           -1.84316230525623       -1.12295494290316        0.75515359043373
C           -4.15696689336471       -1.71182824690703        0.45503337740041
C           -3.88573915392366       -1.97465216262899       -0.88760621277465
C           -2.61786375136348       -1.81421543765539       -1.39395476117879
C           -1.57684770198270       -1.39155638887278       -0.57967039621363
H           -1.04176928165368       -0.78465629887750        1.38946735783567
H           -4.69345171729809       -2.30555802839631       -1.51550575155687
H           -2.42339627344218       -2.01929084523573       -2.43265112311585
H           -3.30292729815207       -1.07288364559541        2.30589880618096
C           -0.20395139530020       -1.17536857825094       -1.13562668637546
C            0.09811658587468        0.29309962136110       -1.40873976584450
H           -0.08356340276739       -1.73789063870622       -2.06663194702042
H            0.54363570753195       -1.58533559914533       -0.44858047677494
C            1.51279526605674        0.48169659496323       -2.00895291515361
O           -5.44031007400457       -1.87943604905078        0.94043463028353
H           -5.46812990212571       -1.66022362173808        1.89710611591194
O            1.74610211813023       -0.45644867294606       -3.09799152192345
N           -0.83358451310090        0.89814383395082       -2.43952034167752
H            0.02884796282466        0.87151557786804       -0.47790169759255
H           -1.24431900093540        0.13843768346429       -3.01157084287665
H           -1.62823334333363        1.39853567488903       -1.99331244758234
N            2.64109185667368        0.57210309009616       -1.04773553405851
C            3.97802555859893        1.05079203444116       -1.47088698396868
H            2.33155950860934        1.14725412781725       -0.26109600554288
C            3.99604289069114        2.56836435902953       -1.49776490898441
O            3.95782160276701        3.14591983261699       -2.56240803487989
O            4.01928624691030        3.18215665803799       -0.28604527380701
H            4.06204558102431        2.52869680796382        0.44689466194887
C            4.52704886231288        0.43298709564905       -2.77258857428469
H            4.66367833923690        0.74854073621517       -0.66296308112068
C            3.70333527206299        0.67321837172802       -3.98557585505800
H            4.62226787914178       -0.64965248654324       -2.63864316843514
H            5.53615364311480        0.81718766747785       -2.95474979208066
C            2.19802765260340        0.63689856429983       -3.94679722687730
C            1.42868831439096        1.64687354336634       -3.04485837747176
C           -0.06078478598472        1.82770551260598       -3.39981544371431
C           -0.40684549012075        1.55513563098209       -4.83415012618305
C            0.45979921967559        1.03568302903949       -5.74824490458532
C            1.74352775106248        0.63978033724909       -5.38131429960240
H            1.99056191423187        2.55169912301493       -2.78280196009526
H           -0.31539157505323        3.08359003632561       -3.23231453089470
H           -1.39595577626717        1.83090875631948       -5.15710960085534
H            0.18169646995139        0.97440230455990       -6.78629447628486
N            2.91042501889671        0.54146709808919       -6.11083862111177
C            4.05310902026832        0.56571144671306       -5.28733452546569
H            2.95254902036516        0.66107740730839       -7.12300793126988
H            5.06280283115706        0.46404281507028       -5.64771229516019
