48
Energy =
C    -0.6267520   -2.8259504    1.2268728 
C    -0.0908170   -1.7357413    1.8327572 
C     0.1603593   -3.6538337    0.4889470 
C     1.4817845   -3.3936254    0.3772943 
C     2.0201468   -2.3010063    0.9714624 
C     1.2348558   -1.4569026    1.6973411 
H    -0.7322597   -1.0847264    2.4196527 
H     2.1032952   -4.0664616   -0.2018554 
H     3.0826281   -2.1113820    0.8594908 
H    -1.6871269   -3.0288603    1.3298229 
C     1.8301552   -0.2134357    2.3306563 
C     1.5764301    1.0827591    1.5118493 
H     2.9275688   -0.3444780    2.4573607 
H     1.4324942   -0.0976207    3.3622394 
C     1.9059159    0.9183606    0.0306258 
O    -0.3626125   -4.7726915   -0.1693481 
H    -1.3545956   -4.9126458   -0.0089056 
O     0.8943158    0.8202025   -0.9227780 
N     0.2062518    1.5827174    1.7262245 
H     2.2777455    1.8673881    1.8764938 
H    -0.4777118    0.9787687    1.2114964 
H    -0.0409381    1.5746373    2.7420938 
N     3.2631362    0.7313089   -0.3926878 
C     3.8273713    1.6300638   -1.4175992 
H     3.8404227   -0.0142262    0.0530962 
C     3.6287341    3.1148902   -1.1071916 
O     4.7212633    3.8564919   -0.6761105 
O     2.4113516    3.7733856   -1.2812859 
H     1.6490446    3.1400682   -1.4730196 
C     3.3326753    1.2297525   -2.8262871 
H     4.9334997    1.4979869   -1.4046309 
C     3.8227896   -0.1538977   -3.2061453 
H     3.7213746    1.9595222   -3.5714406 
H     2.2270720    1.2938561   -2.8863443 
C     3.1398591   -1.3152859   -3.1729259 
C     1.8448261   -1.5693294   -2.8496889 
C     1.4008215   -2.8588642   -2.8995008 
C     2.2472269   -3.8666626   -3.2649520 
C     3.5415275   -3.5919749   -3.5886425 
C     3.9565615   -2.3088826   -3.5351108 
H     1.1637933   -0.7801573   -2.5588119 
H     0.3695602   -3.0906671   -2.6350695 
H     1.8854909   -4.8927992   -3.2937281 
H     4.2262764   -4.3814533   -3.8819123 
N     5.2559901   -1.8202789   -3.8313515 
C     5.0849095   -0.4189179   -3.5900296 
H     6.1080274   -2.3438495   -4.1414282 
H     5.8783128    0.3206259   -3.6857511 
