48
Energy =
C    -1.6605156   -1.0877016   -0.7858259 
C    -0.5030099   -1.5344069   -1.3363180 
C    -1.8277159   -1.1072478    0.5629596 
C    -0.8337704   -1.5729813    1.3522528 
C     0.3269431   -2.0176331    0.8073358 
C     0.5018416   -1.9983955   -0.5434339 
H    -0.3818999   -1.5056800   -2.4161959 
H    -0.9804066   -1.5836610    2.4265975 
H     1.1117706   -2.3880923    1.4604953 
H    -2.4499530   -0.7117228   -1.4273735 
C     1.7983648   -2.4958224   -1.1533772 
C     2.8716621   -1.3967027   -1.3752028 
H     1.5831850   -3.0013085   -2.1217550 
H     2.2294920   -3.2878807   -0.5017474 
C     2.5575435   -0.4731873   -2.5452569 
O    -3.0087365   -0.6577189    1.1625527 
H    -3.6940693   -0.3030386    0.5045160 
O     1.4408564    0.3547965   -2.5171537 
N     3.1336503   -0.6318806   -0.1457815 
H     3.8122329   -1.9235607   -1.6572111 
H     2.2943593   -0.0449509    0.0855515 
H     3.2859993   -1.2878269    0.6549964 
N     3.3873914   -0.4813970   -3.7174166 
C     4.6381499    0.2767285   -3.4823907 
H     2.8358062   -0.0051649   -4.4721561 
C     4.4039106    1.7925363   -3.3943486 
O     4.2997723    2.5427833   -4.5614075 
O     4.2776977    2.4432833   -2.1678915 
H     4.2370133    1.7919371   -1.3974983 
C     5.6263732   -0.0869182   -4.6079310 
H     5.1085891   -0.0424857   -2.5232175 
C     7.0041522    0.4836148   -4.3501331 
H     5.2385000    0.2822388   -5.5851521 
H     5.6959811   -1.1927369   -4.6998627 
C     7.9654991   -0.0556133   -3.5847712 
C     7.9737110   -1.2236128   -2.8923754 
C     9.0872294   -1.5414461   -2.1715550 
C    10.1615998   -0.6952121   -2.1508438 
C    10.1283663    0.4746606   -2.8505511 
C     9.0167650    0.7648766   -3.5585932 
H     7.1192496   -1.8935331   -2.9042125 
H     9.1198045   -2.4712380   -1.6089590 
H    11.0444901   -0.9541656   -1.5717834 
H    10.9687878    1.1603071   -2.8401670 
N     8.7719273    1.9291962   -4.3345256 
C     7.4416190    1.6709923   -4.8056953 
H     9.3943409    2.7493671   -4.5177247 
H     6.8542960    2.3608966   -5.4116247 
