48
Energy =
C     4.9278578    2.9179511    4.9972090 
C     4.7285963    2.2175869    3.8526006 
C     4.4562855    2.4420002    6.1806351 
C     3.7874839    1.2666285    6.2092458 
C     3.5848273    0.5616149    5.0672699 
C     4.0577319    1.0330173    3.8812933 
H     5.1110083    2.6119703    2.9123672 
H     3.4159625    0.8989950    7.1591805 
H     3.0417192   -0.3785189    5.1107155 
H     5.4647198    3.8596361    4.9614059 
C     3.8247408    0.2652456    2.6003092 
C     2.6592388    0.8579999    1.7727778 
H     3.6351173   -0.8118554    2.8063519 
H     4.7646125    0.2923149    2.0038708 
C     2.6756065    0.3167205    0.3554557 
O     4.6431474    3.1392485    7.3791728 
H     5.1547506    4.0083434    7.2713156 
O     2.6366953   -1.0553989    0.1296248 
N     1.3660220    0.5810587    2.4181993 
H     2.7922556    1.9638990    1.6861186 
H     1.2512223   -0.4517150    2.5567441 
H     1.3374178    1.0359777    3.3606140 
N     2.9837811    1.1867054   -0.7371192 
C     4.3955026    1.2455185   -1.1495074 
H     2.1976586    1.6669597   -1.2284682 
C     5.1883563    2.1691134   -0.2287290 
O     4.6731914    3.4170508    0.1001904 
O     6.4439948    1.8165084    0.2650429 
H     6.7626561    0.9310206   -0.1012186 
C     4.4700091    1.7210659   -2.6113768 
H     4.8334644    0.2216762   -1.0906236 
C     5.8803322    1.6288687   -3.1502293 
H     4.1017229    2.7701658   -2.6844950 
H     3.7923587    1.1019804   -3.2394079 
C     6.4771663    0.5366232   -3.6517456 
C     5.9868584   -0.7163233   -3.8345297 
C     6.8156646   -1.6662801   -4.3551525 
C     8.1079569   -1.3546109   -4.6769053 
C     8.5799856   -0.0909980   -4.4777965 
C     7.7394934    0.8319678   -3.9650652 
H     4.9639643   -0.9691076   -3.5697917 
H     6.4477595   -2.6778321   -4.5107153 
H     8.7632083   -2.1185399   -5.0880602 
H     9.6045860    0.1707764   -4.7191981 
N     8.0349258    2.1870055   -3.6579458 
C     6.7792339    2.6288787   -3.1236485 
H     8.9262928    2.7178925   -3.7902940 
H     6.5983274    3.6195916   -2.7070986 
