48
 energy: -9.290428535863 gnorm: 0.000746282381 xtb: 6.6.0 (2ccbbd7)
C            1.64943364704368       -1.13070887164291        3.89365074309704
C            1.61183067342941       -0.06086320778267        3.03167737770123
C            0.47383271549668       -1.78165326237934        4.26804473742403
C           -0.73158304864652       -1.32017108032818        3.74034793481619
C           -0.75862514061066       -0.25083213281395        2.87731956930410
C            0.41141140243960        0.40051479844295        2.51284409963906
H            2.52753246171162        0.41266631952205        2.72060984984325
H           -1.63820318547675       -1.82297164789534        4.02594775293946
H           -1.69741571004471        0.09185926191090        2.47737446346641
H            2.58900922135924       -1.48103769526567        4.28179917067953
C            0.37235140298172        1.56140303224492        1.56526102949789
C            0.85564202188260        1.23650928909806        0.13871220270722
H            0.97483839804545        2.37950875618768        1.97306483916610
H           -0.65391741126073        1.94204121723117        1.52528383915127
C            2.36145152670868        1.26144138347342        0.03199600161362
O            0.47469367746907       -2.85806396470173        5.13435254677309
H            1.39318574478149       -3.06292947723411        5.41332640734052
O            3.01506015064137        0.46078835896491        0.66595595570349
N            0.38817108493204       -0.05866758208735       -0.33136831606536
H            0.46757342591311        1.99934145546042       -0.55536049530132
H            0.87787570716283       -0.77346397238170        0.18888414876954
H           -0.59960278488240       -0.16587338828513       -0.13982369263539
N            2.94377163831237        2.16887339411712       -0.82969549851953
C            4.30405682592271        1.91785393843132       -1.27134579165472
H            2.37380252555408        2.62112839184926       -1.54588652314608
C            4.87817941661222        3.10816851256412       -2.01647789154873
O            5.73636940983308        2.90616265245419       -2.84833796004980
O            4.39788514119987        4.32622402209668       -1.66819355014863
H            3.74577579017502        4.24156657437952       -0.93416361899721
C            4.34338400189162        0.63821978998398       -2.11220043421643
H            4.90544057232894        1.77571186290209       -0.36085098638827
C            3.36984270765988        0.65504179056395       -3.24350578661071
H            4.11646269017211       -0.21979325995125       -1.46967631880538
H            5.35536694603277        0.48378222578911       -2.49956016994072
C            3.62509077172945        1.06757306432954       -4.58602681366170
C            4.76226965164029        1.58375111899957       -5.23095780767466
C            4.67593232467008        1.91414324299884       -6.55466000808424
C            3.47610747761877        1.75222898487822       -7.26620607746029
C            2.35037421262009        1.27205886273417       -6.65498958224435
C            2.41854945935549        0.92982865095388       -5.29851248531491
H            5.65732910392384        1.76989506039529       -4.66313763500718
H            5.53687933336058        2.32325511088128       -7.05689546478341
H            3.44070064499628        2.02511341188444       -8.30785618216458
H            1.42289666869736        1.16015775102270       -7.18730310095123
N            1.46148894162841        0.47676765307859       -4.40862315404349
C            2.03619742102862        0.33260360081126       -3.17217897093460
H            0.47665892709325        0.33165189181436       -4.63861281266984
H            1.49203430705367        0.07950219710083       -2.27483638119179
