48
Energy =
C    -0.0919513    7.6717139    0.5097467 
C    -0.0319005    6.3964688    0.0492646 
C     0.6830287    8.0574065    1.5586028 
C     1.5144630    7.1628220    2.1394896 
C     1.5781217    5.8860900    1.6839479 
C     0.8019348    5.4943540    0.6366615 
H    -0.6562863    6.1060491   -0.7917737 
H     2.1295898    7.4831650    2.9734429 
H     2.2553112    5.1831685    2.1631150 
H    -0.7608948    8.3826814    0.0368481 
C     0.8869131    4.0766064    0.1176337 
C     2.1727946    3.8314011   -0.7078744 
H    -0.0079200    3.8212671   -0.4955411 
H     0.8629452    3.3804880    0.9863849 
C     2.3026056    2.3647510   -1.0744682 
O     0.6451646    9.3638426    2.0566276 
H    -0.0032478    9.9724499    1.5693413 
O     1.3654265    1.8021650   -1.9323993 
N     2.1853407    4.6627738   -1.9222478 
H     3.0631334    4.0851838   -0.0857736 
H     1.3020883    4.5117672   -2.4660835 
H     2.2322822    5.6751156   -1.6587718 
N     3.0554659    1.4842154   -0.2324018 
C     4.4716898    1.2300134   -0.5631547 
H     2.5991402    1.0945833    0.6225474 
C     5.3479552    2.4774406   -0.4209267 
O     6.1007943    2.6404301    0.7341359 
O     5.3865530    3.4892943   -1.3830160 
H     4.7390900    3.3245006   -2.1373581 
C     4.5711445    0.5313526   -1.9388514 
H     4.8725284    0.5189026    0.1957896 
C     5.9799197    0.0595057   -2.2231120 
H     4.2228845    1.1973776   -2.7572152 
H     3.8750001   -0.3362550   -1.9576147 
C     6.5323829   -1.1016260   -1.8374293 
C     5.9900911   -2.1371225   -1.1461651 
C     6.7792788   -3.2143917   -0.8682508 
C     8.0841567   -3.2387241   -1.2770152 
C     8.6082371   -2.1850837   -1.9655615 
C     7.8065184   -1.1324311   -2.2311470 
H     4.9561413   -2.1173886   -0.8154227 
H     6.3694209   -4.0567677   -0.3163472 
H     8.7075246   -4.0995724   -1.0488745 
H     9.6428571   -2.1852650   -2.2911762 
N     8.1566624    0.0633722   -2.9134899 
C     6.9183755    0.7854192   -2.8562495 
H     9.0695920    0.3367236   -3.3444229 
H     6.7746278    1.7964040   -3.2354056 
