48
 energy: -9.082009664052 gnorm: 0.000830578841 xtb: 6.6.0 (2ccbbd7)
C           -0.26754677222037        3.57389886223876        2.78387577442791
C           -0.12567945114914        2.47011808206837        1.97414546502394
C            0.47815548310779        4.73194349084949        2.55182028708090
C            1.37060072804891        4.73667062755837        1.47879310088422
C            1.49775376372610        3.62835351818892        0.68577172538128
C            0.75861447498333        2.48464476314733        0.90333865624966
H           -0.70087771900661        1.58110852576237        2.16818652021281
H            1.95258907119837        5.62050511447709        1.28901659521713
H            2.25497106391496        3.53736396198770       -0.27758395319816
H           -0.95634205224417        3.55440939724639        3.60930725723105
C            0.95553369308983        1.28034593601455        0.03325935918398
C            1.10327570853080        1.58400045885867       -1.46841287815185
H            0.11556297588957        0.59371570665275        0.17748666217268
H            1.84312705720453        0.73824452140359        0.36918244989990
C            2.44145750034523        2.18181405544016       -1.80231952846102
O            0.35801219172181        5.85509725317031        3.34695544652771
H           -0.30819339010408        5.70011111171775        4.05095541058779
O            2.89720126180810        3.31163730428857       -1.17355724262759
N            0.84783252051995        0.38368571008950       -2.26545369979579
H            0.34407993923659        2.33001080407905       -1.75217313086388
H            1.46507579377629       -0.38269402863653       -1.98520239374847
H           -0.10014322143235        0.05756340047250       -2.12829400081600
N            3.25028601531453        1.57807671319558       -2.76600339980956
C            4.68926478160855        1.47298909762481       -2.54234845192747
H            2.87532597067482        0.79683998026549       -3.30565573886901
C            5.40363362188871        2.46884928088412       -3.43052726664080
O            6.28963989515341        2.09972263068586       -4.16888800789255
O            4.94440343051014        3.73512962321011       -3.28605328571984
H            4.21256656289908        3.72611693974328       -2.61569990165330
C            5.18004028226648        0.03400474561650       -2.70241032905982
H            4.85651313778784        1.78454971767828       -1.50119719534760
C            4.30344973580072       -0.90362398687736       -1.94192944440507
H            6.22002979991070       -0.05556075294240       -2.37305795435074
H            5.17457394917916       -0.22726979395305       -3.76489362183202
C            4.05434694997803       -0.86522222726354       -0.53636247222780
C            4.64325209801761       -0.15219509673582        0.52266195709792
C            4.14394557858148       -0.31937898822411        1.78471939298295
C            3.06652451764940       -1.18573991855885        2.03201159722441
C            2.47832020490560       -1.89091036063182        1.01809279230153
C            2.97197282005448       -1.73000672252545       -0.28271608937010
H            5.47505245479231        0.50242489316053        0.33334011945498
H            4.58386651344779        0.22178634451461        2.60587161430598
H            2.69791205541577       -1.29425975493206        3.03860643703371
H            1.65011376913939       -2.55299102012692        1.19671785610508
N            2.56602158704405       -2.25601306942693       -1.49687436256629
C            3.39334518395007       -1.77900704212179       -2.48454698894160
H            1.86451494820360       -2.99251163851519       -1.60339839044498
H            3.29473564597011       -2.00731892068767       -3.53385726658298
