48
Energy =
C     3.1989991   -2.1393928    2.1081044 
C     3.0555460   -0.7846872    2.0111248 
C     2.1712760   -2.8878481    2.6049519 
C     0.9993603   -2.2921761    2.9201900 
C     0.8352351   -0.9567700    2.7435505 
C     1.8639706   -0.1940374    2.2817736 
H     3.8874515   -0.1853808    1.6596139 
H     0.1879452   -2.9028820    3.2999022 
H    -0.1272779   -0.5058054    2.9686994 
H     4.5947301   -2.8617534    1.5992093 
C     1.6591475    1.2829225    1.9944009 
C     1.3164863    1.6332143    0.5067562 
H     2.5590929    1.8511583    2.3225102 
H     0.8389494    1.6638707    2.6430258 
C     2.5046320    2.1569969   -0.2932976 
O     2.2972038   -4.2676010    2.7961509 
H     3.2343220   -4.6147114    2.6324502 
O     2.5788836    3.5185088   -0.5537907 
N     0.6320477    0.5323239   -0.1934010 
H     0.6179533    2.5035289    0.5319354 
H     1.2665229   -0.3000802   -0.2509124 
H    -0.2102787    0.2426668    0.3557465 
N     3.6588019    1.3358023   -0.5352413 
C     4.0550752    1.2122983   -1.9665769 
H     4.4417808    1.7889919   -0.0074850 
C     4.5867678    2.5224588   -2.5688966 
O     5.9478159    2.7907965   -2.4829834 
O     3.7740086    3.4244492   -3.2570558 
H     2.7976354    3.2819939   -3.0492723 
C     2.9488003    0.5368027   -2.8303416 
H     4.9454485    0.5461928   -2.0157802 
C     2.9490134   -0.9912842   -2.9376671 
H     3.0439062    0.9240775   -3.8704605 
H     1.9413083    0.8584843   -2.4941537 
C     3.2360837   -1.9398863   -2.0133196 
C     3.7996041   -1.8410102   -0.7851325 
C     3.8062919   -2.9252039    0.0459077 
C     3.3384253   -4.1270304   -0.4144531 
C     2.8456040   -4.2350886   -1.6798059 
C     2.8080960   -3.1279289   -2.4521914 
H     4.2369510   -0.9372319   -0.4286724 
H     4.8521002   -2.6088370    3.0126351 
H     3.3454215   -4.9950807    0.2369900 
H     2.4600990   -5.1786472   -2.0509925 
N     2.2455915   -3.0210805   -3.7483242 
C     2.3585109   -1.6134235   -3.9787315 
H     1.8456176   -3.7689307   -4.3612838 
H     1.9282739   -1.1060088   -4.8401472 
