48
Energy =
C    -0.4146209    2.5318316   -5.6712660 
C    -0.3392165    1.5992465   -4.6885389 
C    -0.1777359    3.8408931   -5.3903286 
C     0.1344413    4.2077113   -4.1269819 
C     0.2099969    3.2794038   -3.1397908 
C    -0.0335098    1.9691771   -3.4147487 
H    -0.5256587    0.5559073   -4.9287031 
H     0.3258786    5.2547315   -3.9194993 
H     0.4723104    3.5921100   -2.1308188 
H    -0.6628888    2.2279734   -6.6822868 
C     0.0856002    0.9275137   -2.3251624 
C     1.5066019    0.3256133   -2.2798054 
H    -0.6639637    0.1241310   -2.4991874 
H    -0.1671499    1.3738305   -1.3354578 
C     2.5460387    1.3700049   -1.9042576 
O    -0.2448142    4.8267274   -6.3799325 
H    -0.4865794    4.4726696   -7.2988679 
O     2.5191242    1.9745653   -0.6516157 
N     1.5422049   -0.8069388   -1.3421239 
H     1.7765498   -0.0464957   -3.2955516 
H     1.2640172   -0.4750139   -0.3860556 
H     0.8432921   -1.5300231   -1.6336330 
N     3.5738239    1.7360309   -2.8311309 
C     4.9527286    1.3842653   -2.4468563 
H     3.3021277    2.1736787   -3.7412295 
C     5.9773234    2.1849649   -3.2420370 
O     6.9111059    2.9562936   -2.5638062 
O     6.0480771    2.1187823   -4.6353377 
H     5.3062856    1.5600672   -5.0277001 
C     5.1599209   -0.1387017   -2.6138228 
H     5.1243235    1.6744449   -1.3801097 
C     6.4819672   -0.5785754   -2.0273335 
H     5.1090163   -0.4214175   -3.6880116 
H     4.3391784   -0.6977356   -2.1134229 
C     6.7235985   -0.8970701   -0.7461436 
C     5.8767515   -0.9394825    0.3148215 
C     6.3833619   -1.2829921    1.5337718 
C     7.7132297   -1.5708502    1.6732487 
C     8.5453148   -1.5149490    0.5944333 
C     8.0197367   -1.1764129   -0.6015771 
H     4.8219060   -0.7003196    0.2093252 
H     5.7270949   -1.3219428    2.4001234 
H     8.1102162   -1.8386002    2.6493372 
H     9.6042134   -1.7302153    0.6894405 
N     8.7102590   -1.0361546   -1.8353389 
C     7.6421170   -0.6343730   -2.7050632 
H     9.7218980   -1.1931941   -2.0499604 
H     7.7660876   -0.3572100   -3.7522703 
