48
Energy =
C     0.9792014   -3.5185577    0.5722050 
C     0.6320363   -2.5670436   -0.3313399 
C     2.1882047   -3.4649237    1.1915113 
C     3.0410127   -2.4558385    0.9045466 
C     2.6995867   -1.5033021    0.0002089 
C     1.4935095   -1.5542356   -0.6296390 
H    -0.3411256   -2.6253581   -0.8118893 
H     3.9990412   -2.4170084    1.4127959 
H     3.3928114   -0.6939255   -0.2023915 
H     0.2864654   -4.3218662    0.7992828 
C     1.1029460   -0.4893229   -1.6365448 
C     0.8277109    0.8788822   -0.9634332 
H     0.1985419   -0.8175166   -2.1947468 
H     1.8980232   -0.3866017   -2.4085642 
C     2.1092697    1.6750257   -0.7692902 
O     2.5774552   -4.4305600    2.1248301 
H     1.8795371   -5.1467933    2.2924949 
O     2.6740114    1.7424803    0.5037175 
N    -0.1564938    1.6407804   -1.7528086 
H     0.4149553    0.7200127    0.0627721 
H     0.1347579    1.6660985   -2.7601133 
H    -1.0869514    1.1617544   -1.7100801 
N     2.7598779    2.2903023   -1.9009631 
C     4.0995876    2.8536223   -1.5886788 
H     2.1104227    3.0527487   -2.2020437 
C     4.4580982    4.0242181   -2.4927833 
O     5.5153293    3.8375833   -3.3702546 
O     3.8281649    5.2619784   -2.4281334 
H     3.0974700    5.2661511   -1.7320473 
C     5.1764388    1.7342671   -1.7126436 
H     4.1450626    3.2851453   -0.5614172 
C     5.1556827    1.0428845   -3.0720333 
H     5.0158117    0.9937316   -0.9013887 
H     6.1909043    2.1590360   -1.5439674 
C     5.3850031    1.5776683   -4.3014318 
C     5.7955254    2.8650331   -4.6927503 
C     5.8275915    3.1042861   -6.0459204 
C     5.4741283    2.1499781   -6.9523534 
C     5.0962581    0.9150479   -6.5390894 
C     5.0656679    0.6565528   -5.2192232 
H     6.3476859    3.8959806   -4.1110839 
H     6.1549148    4.0770787   -6.4059222 
H     5.5061795    2.3760594   -8.0153928 
H     4.8149277    0.1487689   -7.2536928 
N     4.6604714   -0.5635672   -4.6184373 
C     4.7387978   -0.2247811   -3.2331167 
H     4.3756533   -1.4633330   -5.0686772 
H     4.4404050   -0.8888468   -2.4285302 
