48
Energy =
C    -2.5837550   -2.8656973   -2.1426282 
C    -1.5720015   -1.9753728   -2.3018984 
C    -2.9922400   -3.2202332   -0.8948806 
C    -2.3858795   -2.6785845    0.1857927 
C    -1.3738823   -1.7875118    0.0325078 
C    -0.9570240   -1.4341840   -1.2143678 
H    -1.2625440   -1.6937668   -3.3055843 
H    -2.7235663   -2.9666790    1.1752254 
H    -0.9029140   -1.3592491    0.9136182 
H    -3.0667614   -3.2908700   -3.0157674 
C     0.1608348   -0.4295048   -1.3858233 
C    -0.3383355    1.0208071   -1.2336056 
H     0.6384648   -0.5452371   -2.3844667 
H     0.9502822   -0.6432695   -0.6313736 
C     0.8329090    1.9664974   -1.0413406 
O    -4.0312570   -4.1351341   -0.6953515 
H    -4.4354238   -4.4923266   -1.5541960 
O     0.9743003    2.6583669    0.1558069 
N    -1.1301105    1.3880912   -2.4204888 
H    -0.9589383    1.1135013   -0.3083297 
H    -2.0249332    0.8436248   -2.4157735 
H    -1.4186131    2.3933802   -2.3410348 
N     1.7854990    2.1845750   -2.0874505 
C     3.2114592    2.1100627   -1.7292475 
H     1.4430254    2.3207314   -3.0667574 
C     3.9178132    3.4046856   -2.1149850 
O     4.7042766    3.4672190   -3.2591777 
O     3.7560858    4.5612479   -1.3543765 
H     3.0280299    4.4470572   -0.6598936 
C     3.8161161    0.8521880   -2.3910008 
H     3.3368141    2.0363661   -0.6225191 
C     5.1951728    0.5295536   -1.8509557 
H     3.8299744    0.9786559   -3.4951322 
H     3.1543496   -0.0177793   -2.1914261 
C     6.3761511    0.6546142   -2.4830132 
C     6.6581422    1.0842360   -3.7409536 
C     7.9614858    1.1116070   -4.1414771 
C     8.9543169    0.7103667   -3.2919658 
C     8.6499517    0.2799300   -2.0353884 
C     7.3534071    0.2640013   -1.6608919 
H     5.8783768    1.4123718   -4.4207006 
H     8.2112894    1.4609545   -5.1406325 
H     9.9908698    0.7385818   -3.6188347 
H     9.4261609   -0.0404727   -1.3486787 
N     6.8309350   -0.1496595   -0.4065532 
C     5.4281401    0.0528119   -0.6141541 
H     7.3371807   -0.5098766    0.4350620 
H     4.6628209   -0.1528446    0.1309461 
