48
Energy =
C    -0.5803962   -0.3261574    2.7629085 
C    -0.6248696    0.2313847    1.5264167 
C     0.3650801    0.0685038    3.6570375 
C     1.2587156    1.0210902    3.3071686 
C     1.2185550    1.5817195    2.0721697 
C     0.2773356    1.1879466    1.1708675 
H    -1.3844681   -0.0963302    0.8219300 
H     2.0062820    1.3299931    4.0291804 
H     1.9421834    2.3494839    1.8128385 
H    -1.3024349   -1.0886545    3.0339676 
C     0.2367245    1.8025692   -0.2143845 
C     1.1508022    1.0872759   -1.2427162 
H     0.5353268    2.8738001   -0.1511520 
H    -0.8070774    1.8073474   -0.5955113 
C     2.6308682    1.2016692   -0.9011618 
O     0.4396155   -0.4874405    4.9386371 
H    -0.2684960   -1.1892612    5.1228823 
O     3.0885262    2.3007841   -0.5502793 
N     0.7231880   -0.3112088   -1.4411280 
H     1.0586459    1.6302224   -2.2122188 
H     0.8364354   -0.8449822   -0.5474966 
H    -0.2927658   -0.3337158   -1.6914742 
N     3.5522558    0.1647821   -1.2858614 
C     4.8198940    0.6478730   -1.8585061 
H     3.3124379   -0.8420433   -1.1510866 
C     4.9912241    2.1391101   -1.5811434 
O     6.0654228    2.8369134   -2.1256956 
O     4.1911836    2.7245890   -0.8374506 
H     3.9170884    2.2847990    0.0161788 
C     4.8784809    0.2983513   -3.3632510 
H     5.6644795    0.1441938   -1.3416181 
C     3.6929758    0.8359988   -4.1426442 
H     4.9017689   -0.8083784   -3.4681737 
H     5.8304331    0.6694855   -3.8016676 
C     3.6029755    2.0098423   -4.7918036 
C     4.5266272    2.9910469   -4.9599246 
C     4.1735449    4.1022129   -5.6680041 
C     2.9180207    4.2142591   -6.1969511 
C     2.0079405    3.2152307   -6.0215933 
C     2.3803921    2.1270336   -5.3157379 
H     5.5254063    2.9083387   -4.5452018 
H     4.8942376    4.9047311   -5.8078844 
H     2.6436829    5.1044029   -6.7576975 
H     1.0075202    3.2881084   -6.4345361 
N     1.5879876    0.9861614   -5.0225986 
C     2.5126699    0.2010285   -4.2587642 
H     0.5996085    0.7730952   -5.2895402 
H     2.2716027   -0.7530683   -3.7944774 
