48
Energy =
C     1.3021550    5.0983186   -3.1176478 
C     2.2131524    4.2852091   -2.5079799 
C     0.3687364    5.7568923   -2.3801336 
C     0.3463316    5.5963661   -1.0390838 
C     1.2482074    4.7891111   -0.4259853 
C     2.1960677    4.1299646   -1.1515873 
H     2.9434632    3.7206023   -3.1331918 
H    -0.4051421    6.1229767   -0.4602967 
H     1.2020634    4.6795128    0.6542908 
H     1.3118839    5.2166736   -4.1993787 
C     3.2014328    3.2369331   -0.4376788 
C     2.8872885    1.7211106   -0.5709563 
H     3.2080273    3.4907942    0.6443271 
H     4.2502092    3.4710201   -0.7514006 
C     2.9730852    1.2082525   -2.0071516 
O    -0.5764882    6.5966393   -2.9754232 
H    -0.4905745    6.6680478   -3.9836353 
O     1.9103245    1.4942239   -2.8546094 
N     3.7433748    0.9493088    0.3447208 
H     1.8239699    1.5487532   -0.2777579 
H     4.7544111    1.1067235    0.1143595 
H     3.5931016    1.2544286    1.3349557 
N     3.9933797    0.2903950   -2.4434013 
C     5.1307867    0.9315248   -3.1571510 
H     3.5244628   -0.4125891   -3.0524324 
C     5.5743288    2.2459812   -2.5274205 
O     4.9851200    3.4388610   -2.9023630 
O     6.4100530    2.2898997   -1.4208751 
H     6.8641725    1.4045740   -1.2529133 
C     4.9680265    1.0036078   -4.7092630 
H     6.0063454    0.2643050   -3.0062054 
C     3.6046294    1.4009194   -5.2453011 
H     5.2569892    0.0266603   -5.1497821 
H     5.7119563    1.7328571   -5.1055869 
C     2.6158445    0.5739153   -5.6301395 
C     2.5620043   -0.7846195   -5.6330613 
C     1.4268495   -1.3888749   -6.0870995 
C     0.3757457   -0.6375670   -6.5336702 
C     0.4545847    0.7230568   -6.5316096 
C     1.5859280    1.2983888   -6.0731100 
H     3.3959970   -1.3865259   -5.2877485 
H     1.3586064   -2.4737654   -6.0964570 
H    -0.5247423   -1.1264712   -6.8960008 
H    -0.3661365    1.3341737   -6.8903381 
N     1.8762752    2.6868202   -6.0164050 
C     3.2013562    2.6647279   -5.4825268 
H     1.2747142    3.5021110   -6.2679527 
H     3.7735003    3.5638553   -5.2990016 
