48
Energy =
C     1.0656653    0.0153024   -8.5456224 
C     1.1279895   -0.6150496   -7.3456144 
C     0.5303013    1.2620449   -8.6359608 
C     0.0605594    1.8699580   -7.5229185 
C     0.1199278    1.2443397   -6.3201521 
C     0.6524165   -0.0049598   -6.2246940 
H     1.5652859   -1.6084541   -7.2891660 
H    -0.3624528    2.8649958   -7.6080614 
H    -0.2600231    1.7509445   -5.4362888 
H     1.4471652   -0.4796375   -9.4320745 
C     0.7353272   -0.6947907   -4.8793861 
C     1.8888388   -0.1455763   -3.9966836 
H     0.8498108   -1.7950507   -5.0019375 
H    -0.2375669   -0.5564646   -4.3548481 
C     1.8032975   -0.6826557   -2.5628044 
O     0.4527134    1.9400089   -9.8569149 
H     0.8206647    1.4161347  -10.6434765 
O     0.8528836   -1.6672737   -2.3039534 
N     3.1832982   -0.4574190   -4.6269724 
H     1.7250830    0.9392190   -3.9299753 
H     3.2503895   -1.4879153   -4.8123658 
H     3.2611310    0.0347221   -5.5485531 
N     2.6068211   -0.2866658   -1.4229514 
C     3.5968134    0.8198708   -1.3823796 
H     1.9249766   -0.1823971   -0.6350683 
C     3.1330446    2.2381176   -1.6023757 
O     4.2282470    4.2542191    0.6952035 
O     2.5908112    2.7535953   -2.7718270 
H     3.1722823    2.4934515   -3.5614173 
C     4.9221912    0.5092149   -2.0570045 
H     3.8958660    0.8706434   -0.3063549 
C     6.0167055    1.5617310   -1.8542319 
H     4.7703672    0.4118908   -3.1452270 
H     5.2807510   -0.4832656   -1.7002850 
C     5.8956814    2.9164480   -1.7021520 
C     4.8406843    3.7149521   -1.2845992 
C     4.9019219    5.0478721   -1.6377351 
C     6.0154031    5.5796123   -2.2123488 
C     7.0928067    4.7968375   -2.4630156 
C     7.0121709    3.4807885   -2.1895813 
H     3.5552036    3.2294778   -0.2953234 
H     4.0782151    5.7041811   -1.3662558 
H     6.0524725    6.6422529   -2.4388129 
H     7.9896696    5.2101087   -2.9119875 
N     7.9786768    2.5080493   -2.5441845 
C     7.2523871    1.3027794   -2.3209396 
H     8.9520836    2.6436166   -2.9024786 
H     7.5806910    0.3321579   -2.6891479 
