48
Energy =
C     5.7679269   -0.7927484    2.2819933 
C     4.5397238   -0.2376457    2.4383470 
C     5.9146534   -1.9356086    1.5603729 
C     4.8314135   -2.5110714    0.9940749 
C     3.6009254   -1.9568913    1.1393482 
C     3.4465245   -0.8211130    1.8747781 
H     4.4414844    0.6849154    3.0055427 
H     4.9694421   -3.4144534    0.4131826 
H     2.7447456   -2.4168686    0.6491489 
H     6.6326579   -0.3147144    2.7297936 
C     2.0853437   -0.1749266    2.0117867 
C     1.8954451    0.9687813    0.9913469 
H     1.9730917    0.2213623    3.0448319 
H     1.2789146   -0.9315389    1.8766970 
C     1.9634790    0.4574880   -0.4371375 
O     7.1648399   -2.5365636    1.3813474 
H     7.9248409   -2.0373580    1.8316629 
O     1.0999183   -0.5464196   -0.8628428 
N     0.6166638    1.6532747    1.2384761 
H     2.7261729    1.7069947    1.1055371 
H    -0.1756130    0.9752424    1.1238657 
H     0.5874822    2.0175225    2.2195723 
N     2.7463837    1.1471571   -1.4137435 
C     4.2099727    0.9735143   -1.3551713 
H     2.2497056    1.7305161   -2.1231238 
C     4.8981927    2.2805506   -0.9876558 
O     5.5511941    2.3797077    0.2352093 
O     4.8770776    3.3925104   -1.8289670 
H     4.3295397    3.2213088   -2.6575739 
C     4.7079979    0.4014336   -2.6971528 
H     4.4979271    0.2579580   -0.5505766 
C     4.4111709   -1.0789982   -2.7992364 
H     5.8005249    0.5742493   -2.8109511 
H     4.2223831    0.9289852   -3.5469049 
C     5.2422603   -2.0928041   -2.5072328 
C     6.5265339   -2.0694890   -2.0662815 
C     7.1478067   -3.2574681   -1.8159482 
C     6.4852788   -4.4381197   -2.0066523 
C     5.1938801   -4.4375800   -2.4428210 
C     4.6005369   -3.2496614   -2.6827608 
H     7.0519377   -1.1358768   -1.8918787 
H     8.1700432   -3.2634331   -1.4445117 
H     6.9874463   -5.3792940   -1.7976959 
H     4.6484664   -5.3635046   -2.5884730 
N     3.2605542   -3.0299943   -3.0966923 
C     3.2170628   -1.5960374   -3.1356205 
H     2.5064729   -3.7215748   -3.3150402 
H     2.3223999   -1.0076532   -3.3397013 
