48
Energy =
C    -4.1707911   -0.2089319   -1.0609413 
C    -2.9020468   -0.6722838   -1.1919078 
C    -4.6397718    0.7478658   -1.9059853 
C    -3.8339729    1.2349257   -2.8769234 
C    -2.5643969    0.7750000   -3.0127285 
C    -2.0919086   -0.1854522   -2.1715675 
H    -2.5396319   -1.4356588   -0.5080456 
H    -4.2187329    1.9992904   -3.5430021 
H    -1.9312944    1.1838410   -3.7959348 
H    -4.8085281   -0.6048962   -0.2781855 
C    -0.6725984   -0.6908360   -2.3048955 
C     0.2809923   -0.0578358   -1.2619095 
H    -0.2795246   -0.5071324   -3.3296784 
H    -0.6766662   -1.7977112   -2.1814319 
C     1.6596403   -0.7037736   -1.2832195 
O    -5.9418320    1.2478008   -1.7975804 
H    -6.4811695    0.8306813   -1.0470130 
O     1.9025213   -1.8509467   -2.0352684 
N     0.3870651    1.3953710   -1.4715715 
H    -0.1186199   -0.2473196   -0.2399803 
H     0.6522029    1.6032916   -2.4645182 
H    -0.5356182    1.8531538   -1.2862825 
N     2.7228953   -0.1589266   -0.4924174 
C     3.9453582    0.3178905   -1.1687003 
H     2.6058474   -0.1077435    0.5438739 
C     3.6684775    1.3171858   -2.2993722 
O     4.0344182    2.6463020   -2.1249998 
O     3.0837247    0.9498626   -3.5155035 
H     2.8370152   -0.0270726   -3.5397007 
C     4.8108131   -0.8904852   -1.5935788 
H     4.5260828    0.8977270   -0.4151130 
C     6.2310665   -0.4781862   -1.9163053 
H     4.3525544   -1.4378984   -2.4441720 
H     4.8296512   -1.6263396   -0.7590355 
C     6.7414214   -0.1838909   -3.1241835 
C     6.1575437   -0.2068851   -4.3500847 
C     6.9064976    0.1501105   -5.4326369 
C     8.2137866    0.5191734   -5.2772133 
C     8.7801099    0.5340826   -4.0375036 
C     8.0185447    0.1768746   -2.9820866 
H     5.1205290   -0.4949751   -4.4812107 
H     6.4589785    0.1461213   -6.4238292 
H     8.8025855    0.8060738   -6.1449144 
H     9.8144482    0.8283517   -3.8959712 
N     8.4107350    0.1338019   -1.6177016 
C     7.1933772   -0.2937173   -0.9949849 
H     9.3390282    0.3515056   -1.1883325 
H     7.0674021   -0.4292174    0.0770450 
