48
Energy =
C    -0.7417052   -1.4153331   -2.5362896 
C    -1.0534628   -0.1003390   -2.4115938 
C     0.2997675   -1.7997896   -3.3220327 
C     1.0207758   -0.8644322   -3.9800842 
C     0.7101337    0.4510196   -3.8640747 
C    -0.3324127    0.8417538   -3.0793567 
H    -1.8797568    0.1929966   -1.7688668 
H     1.8555965   -1.1823715   -4.5938225 
H     1.3147577    1.1882802   -4.3866193 
H    -1.3239475   -2.1576769   -2.0007572 
C    -0.6426605    2.3118202   -2.8933597 
C     0.0497911    2.8898522   -1.6371230 
H    -1.7434694    2.4460669   -2.8068764 
H    -0.3302011    2.8896900   -3.7928739 
C     1.5671784    2.7976919   -1.7366573 
O     0.6511444   -3.1457589   -3.4666423 
H     0.0611092   -3.7833075   -2.9432019 
O     2.2156453    3.5153048   -2.7392150 
N    -0.3810411    4.2800265   -1.4273787 
H    -0.2542404    2.2954797   -0.7447850 
H    -0.1300859    4.8669227   -2.2598575 
H    -1.4205006    4.3211104   -1.3083983 
N     2.2390208    1.6690957   -1.1502342 
C     3.4866861    1.8961168   -0.3966073 
H     1.7799045    0.7308980   -1.1622060 
C     3.3696734    3.0359021    0.6212752 
O     4.3156606    4.0556530    0.6487264 
O     2.3567758    3.0396417    1.5819351 
H     1.7232617    2.2637270    1.4570497 
C     4.6718810    2.0675671   -1.3766442 
H     3.6855314    0.9906155    0.2158064 
C     4.7095071    0.9743457   -2.4243397 
H     5.6324976    2.0696665   -0.8161763 
H     4.6006429    3.0591952   -1.8789331 
C     5.0499873   -0.3108690   -2.2413354 
C     5.4799185   -0.9472541   -1.1217778 
C     5.7471549   -2.2827803   -1.1977983 
C     5.5831099   -2.9538688   -2.3781343 
C     5.1556457   -2.2925720   -3.4910287 
C     4.9008692   -0.9712729   -3.3911798 
H     5.6154499   -0.4144835   -0.1860867 
H     6.0919591   -2.8168792   -0.3157004 
H     5.7944861   -4.0189333   -2.4305881 
H     5.0198244   -2.8102605   -4.4345176 
N     4.4505112   -0.1036828   -4.4220684 
C     4.3402914    1.1344727   -3.7075583 
H     4.2343866   -0.3181146   -5.4222398 
H     3.9921547    2.0684628   -4.1436031 
