48
Energy =
C     4.5628766    2.4127143    6.1843788 
C     4.3755038    1.4234607    5.2741670 
C     4.9531197    3.6510548    5.7785475 
C     5.1527802    3.8906597    4.4624152 
C     4.9669288    2.9056510    3.5482774 
C     4.5795311    1.6640398    3.9500118 
H     4.0598262    0.4403680    5.6131509 
H     5.4625783    4.8813536    4.1488904 
H     5.1311853    3.1183889    2.4930399 
H     4.3988352    2.2114406    7.2372906 
C     4.3580996    0.5743840    2.9262362 
C     2.9919530    0.7178875    2.2136319 
H     4.4420269   -0.4342761    3.3885841 
H     5.1824436    0.6272463    2.1797370 
C     2.9488419   -0.1281589    0.9547036 
O     5.1539895    4.6919913    6.6917700 
H     4.9857671    4.4307718    7.6567674 
O     3.2031206   -1.4943830    1.0201556 
N     1.8897325    0.3565858    3.1190155 
H     2.8569160    1.7765008    1.8837622 
H     2.0314857   -0.6165920    3.4820329 
H     1.8804110    1.0069912    3.9391870 
N     2.8991847    0.5033143   -0.3277167 
C     4.1900165    0.7206806   -1.0008223 
H     1.9646203    0.7018521   -0.7486870 
C     4.8955881    1.9477451   -0.4300936 
O     4.1902484    3.1350827   -0.2772126 
O     6.2478013    1.9290631   -0.0896076 
H     6.6870661    1.0491179   -0.3183175 
C     3.9463224    0.8738628   -2.5128719 
H     4.8384529   -0.1717839   -0.8380481 
C     5.2495124    0.9246699   -3.2790188 
H     3.3546634    1.7982356   -2.7060048 
H     3.3331571    0.0217948   -2.8800813 
C     5.9869362   -0.1232811   -3.6774209 
C     5.7553083   -1.4538186   -3.5370377 
C     6.6834970   -2.3273154   -4.0227167 
C     7.8178890   -1.8633399   -4.6298263 
C     8.0319309   -0.5223759   -4.7530127 
C     7.0970965    0.3214050   -4.2679367 
H     4.8601092   -1.8247815   -3.0458702 
H     6.5223195   -3.3981778   -3.9223638 
H     8.5545561   -2.5661889   -5.0110613 
H     8.9301756   -0.1374607   -5.2237968 
N     7.1367132    1.7413075   -4.2705474 
C     5.9071639    2.0528421   -3.6007338 
H     7.8642994    2.3839735   -4.6598214 
H     5.5806872    3.0603725   -3.3433734 
