48
Energy =
C    -2.8275285   -0.2220864   -1.5523513 
C    -1.7252998   -0.9681279   -1.2884928 
C    -2.8655661    1.0898799   -1.1971761 
C    -1.7969989    1.6474558   -0.5834706 
C    -0.6923635    0.9057022   -0.3160165 
C    -0.6524860   -0.4106582   -0.6615845 
H    -1.7049109   -2.0135840   -1.5850035 
H    -1.8363426    2.6973203   -0.3132364 
H     0.1576990    1.3763443    0.1698655 
H    -3.6771419   -0.6764822   -2.0503261 
C     0.5854613   -1.2386267   -0.3894788 
C     1.4892468   -1.3459998   -1.6356882 
H     0.2787119   -2.2594595   -0.0714562 
H     1.1612877   -0.8149132    0.4625776 
C     2.0186030    0.0114623   -2.0752513 
O    -3.9879270    1.8853026   -1.4495422 
H    -4.7383138    1.4021404   -1.9311522 
O     1.5653710    0.5855160   -3.2581394 
N     2.5855786   -2.2958943   -1.3697187 
H     0.8841763   -1.7253935   -2.4942149 
H     3.0727766   -2.0456036   -0.4753414 
H     2.1890383   -3.2581749   -1.2449547 
N     3.0409378    0.6788927   -1.3213127 
C     4.4264216    0.7594212   -1.8379178 
H     2.7796659    1.0949126   -0.4007002 
C     4.8275961    2.2101459   -2.0781951 
O     5.9460477    2.7203538   -1.4311191 
O     4.1272825    3.0356040   -2.9575258 
H     3.2956393    2.5783580   -3.3089614 
C     4.6597088   -0.1175560   -3.0994081 
H     5.1028797    0.3889409   -1.0343596 
C     6.1297763   -0.2200663   -3.4367221 
H     4.1079494    0.3044864   -3.9693543 
H     4.2486725   -1.1409840   -2.9448427 
C     7.0059125   -1.1111372   -2.9468450 
C     6.8108141   -2.1383134   -2.0798018 
C     7.8854777   -2.9013537   -1.7284545 
C     9.1242814   -2.6273383   -2.2392854 
C     9.2963336   -1.5876434   -3.1045004 
C     8.2174363   -0.8495319   -3.4396472 
H     5.8293071   -2.3557408   -1.6680241 
H     7.7568797   -3.7304649   -1.0367651 
H     9.9762689   -3.2384384   -1.9519770 
H    10.2729074   -1.3525597   -3.5139040 
N     8.1817664    0.2776284   -4.3037211 
C     6.7928911    0.6312047   -4.2390229 
H     8.9579268    0.7228811   -4.8452784 
H     6.3490027    1.4950766   -4.7349411 
