48
 energy: -9.292295038141 gnorm: 0.000549409896 xtb: 6.6.0 (2ccbbd7)
C           -0.40408054038734       -0.83647689983042        4.59198419834447
C           -0.70243544856140       -0.08603461679388        3.47902246949346
C            0.90647049046473       -0.92024784306246        5.06317623359717
C            1.90075634877531       -0.22804787426899        4.37305035983202
C            1.59176717941237        0.51914267177225        3.26265134012227
C            0.28838411797341        0.60874358928371        2.79909794919284
H           -1.71831839026574       -0.02930923263337        3.12761102197964
H            2.91253408173405       -0.29435625610627        4.73110903596325
H            2.36637337093175        1.03770499452891        2.72596322326076
H           -1.18132459104338       -1.36626307467883        5.11291760636846
C           -0.04552398348380        1.42738352562304        1.58765591611734
C            0.51623673112495        0.86429045823202        0.26585704623146
H            0.33133566421717        2.44569545730138        1.72971740962748
H           -1.13455459382201        1.51848202886555        1.51604385633459
C            1.94915302019244        1.28954665316756        0.02196633618293
O            1.23800724402233       -1.66278628830037        6.18045175047192
H            0.43302357456929       -2.07866006849108        6.55826205423585
O            2.62018246036258        1.77290914316137        0.91126121680884
N            0.41317962577109       -0.58581916967103        0.19871550395814
H           -0.07141495675432        1.27208549901239       -0.57338180559498
H            1.04049945336656       -0.98999974057248        0.88073156417138
H           -0.52409819013460       -0.88452435937435        0.43679916639578
N            2.44327922258418        1.10838979390237       -1.24794307841241
C            3.80516819022327        1.47764993096347       -1.61542016314540
H            1.84623269195823        0.78121422351392       -2.00822647146801
C            3.85551208125876        2.96231447714702       -1.94441515919924
O            4.20599809024886        3.33466866736321       -3.04240933662889
O            3.48152732211809        3.76291469126770       -0.91889204418628
H            3.18802266353289        3.18308374018170       -0.17443624035891
C            4.34378863763928        0.59347043277497       -2.74440754800387
H            4.42186845801942        1.30907744014063       -0.72066989912416
C            5.82569252946976        0.67057441014606       -2.90995805758648
H            3.85890925182492        0.88699683271576       -3.68038269753813
H            4.05184681514760       -0.44447774132168       -2.55910271225683
C            6.76749396594748       -0.39343226180844       -2.77836592500899
C            6.63508802850371       -1.75784504815589       -2.46711630753774
C            7.76163814225525       -2.53146672808649       -2.41865986698945
C            9.03077165114611       -1.98575234929838       -2.67117864910100
C            9.18464654548210       -0.66047647926958       -2.97316313187723
C            8.04375058478237        0.14987496140499       -3.02829928496882
H            5.66272839098082       -2.17290819676085       -2.27091283376703
H            7.67669522261764       -3.57905615012484       -2.18174132052734
H            9.89752577235586       -2.62400558077120       -2.62511771800289
H           10.15233205200941       -0.23375259661754       -3.16688618509064
N            7.87910228551132        1.49684336205186       -3.30065793999640
C            6.54290189347568        1.79662167435783       -3.22293831595241
H            8.63571292325783        2.15028514250941       -3.51076177525179
H            6.10932628778074        2.77329798036648       -3.36268616119433
