48
Energy =
C     3.0860000    6.8885493    1.8664733 
C     2.5785547    5.6303469    1.9041589 
C     4.1120210    7.1875426    1.0251566 
C     4.6239040    6.2231614    0.2270214 
C     4.1206996    4.9637673    0.2607846 
C     3.0955681    4.6586068    1.1023650 
H     1.7555944    5.4099835    2.5786715 
H     5.4412812    6.4716364   -0.4407911 
H     4.5443888    4.2038146   -0.3912649 
H     2.6680830    7.6554713    2.5095126 
C     2.5199427    3.2596351    1.1214641 
C     1.6179266    2.9772896   -0.1052887 
H     1.9497705    3.0784060    2.0597243 
H     3.3680333    2.5375839    1.1289109 
C     1.1423164    1.5283984   -0.1167825 
O     4.6549282    8.4753589    0.9602685 
H     4.2220714    9.1364790    1.5954324 
O    -0.1709727    1.2304022    0.2333483 
N     0.4760082    3.9072815   -0.1413321 
H     2.2097478    3.1168184   -1.0362123 
H    -0.0446072    3.8694436    0.7667092 
H     0.8176031    4.8861227   -0.2826761 
N     2.0820907    0.4479124   -0.1543048 
C     2.5899735   -0.0817580   -1.4390234 
H     2.4177850    0.0697621    0.7593825 
C     3.9578648    0.4901045   -1.8079277 
O     4.2527273    1.8244652   -1.5607833 
O     4.9245909   -0.2934139   -2.4435674 
H     4.6221847   -1.2471868   -2.5781099 
C     1.5412879   -0.0440175   -2.5903650 
H     2.7729561   -1.1635094   -1.2570569 
C     1.3554016    1.3036271   -3.2696120 
H     0.5632556   -0.3957394   -2.1898002 
H     1.8280350   -0.7873223   -3.3661729 
C     2.1310365    1.8518514   -4.2231774 
C     3.2439022    1.3666875   -4.8328050 
C     3.8464547    2.1286697   -5.7898868 
C     3.3267788    3.3454936   -6.1323950 
C     2.1980225    3.8053465   -5.5232924 
C     1.6242507    3.0360948   -4.5745070 
H     3.6528637    0.3948118   -4.5800812 
H     4.7448078    1.7648088   -6.2831743 
H     3.8125555    3.9463512   -6.8972239 
H     1.7658133    4.7634365   -5.7917843 
N     0.4353701    3.3158538   -3.8525385 
C     0.3212418    2.1371807   -3.0463721 
H    -0.1945627    4.1492900   -3.8991787 
H    -0.4998399    1.9472197   -2.3577161 
