48
Energy =
C    -0.0755504    3.7829817    4.4651586 
C     0.1602359    3.4741283    3.1647161 
C    -0.3108734    2.7958684    5.3705298 
C    -0.3086846    1.5049513    4.9674614 
C    -0.0733442    1.1902721    3.6687141 
C     0.1588773    2.1746856    2.7576108 
H     0.3513539    4.2741372    2.4541637 
H    -0.4967854    0.7266255    5.6989664 
H    -0.0718747    0.1463850    3.3646243 
H    -0.0737695    4.8211272    4.7796425 
C     0.4432129    1.8215200    1.3146633 
C     1.9037522    1.3582732    1.1117186 
H     0.2131906    2.6810097    0.6471486 
H    -0.2503155    1.0053858    1.0030616 
C     2.0973784    0.7652522   -0.2766352 
O    -0.5544827    3.0796142    6.7181242 
H    -0.5478140    4.0693491    6.9395920 
O     1.7446242   -0.5613416   -0.4828695 
N     2.8503040    2.4587362    1.3762785 
H     2.1138622    0.5123343    1.8108496 
H     2.5075995    3.3493098    0.9423432 
H     2.8910949    2.6333401    2.4094006 
N     2.3495919    1.5912002   -1.4210109 
C     3.8007535    1.7929644   -1.6674815 
H     1.8372444    2.4921614   -1.2833307 
C     4.0359548    3.1619764   -2.3157869 
O     3.8633975    3.3230907   -3.6853456 
O     4.3580183    4.2854414   -1.5509107 
H     4.4372997    4.0834954   -0.5653362 
C     4.3101555    0.6420759   -2.5849342 
H     4.3959580    1.8546017   -0.7436998 
C     5.0776989   -0.5641371   -2.0280769 
H     4.9674754    1.0754551   -3.3745355 
H     3.4357180    0.2423647   -3.1499788 
C     5.3479800   -1.0266587   -0.7728140 
C     5.0433316   -0.5517351    0.4696325 
C     5.4577418   -1.2445425    1.5682335 
C     6.1692469   -2.3976685    1.4304943 
C     6.4713495   -2.8668215    0.1926053 
C     6.0516642   -2.1664132   -0.8816591 
H     4.4870027    0.3430978    0.6420633 
H     5.2165539   -0.8754179    2.5624516 
H     6.4940281   -2.9448435    2.3122677 
H     7.0355026   -3.7846518    0.0640427 
N     6.2774935   -2.5128151   -2.2340222 
C     5.6172280   -1.4398490   -2.9015453 
H     6.7922778   -3.3303942   -2.6353802 
H     5.5515790   -1.3551606   -3.9852329 
