48
Energy =
C    -0.0062005   -1.1658478   -4.9510735 
C    -0.0142260    0.1901350   -4.8839433 
C     0.1745356   -1.9059800   -3.8241276 
C     0.3434754   -1.2819562   -2.6365262 
C     0.3393885    0.0720410   -2.5641870 
C     0.1605219    0.8186190   -3.6890414 
H    -0.1587902    0.7674100   -5.7933184 
H     0.4915818   -1.8790761   -1.7440283 
H     0.4944333    0.5535955   -1.6008933 
H    -0.1437950   -1.6561765   -5.9087384 
C     0.1734382    2.3321422   -3.6077835 
C     1.5921059    2.9489990   -3.7041863 
H    -0.2847819    2.6441939   -2.6413371 
H    -0.4771870    2.7631694   -4.3995426 
C     2.5413497    2.3904225   -2.6599439 
O     0.1941170   -3.3050313   -3.8607606 
H     0.0416115   -3.6916661   -4.7857975 
O     2.3405235    2.7501667   -1.3312365 
N     2.1300143    2.8444414   -5.0713537 
H     1.5171371    4.0306678   -3.4403143 
H     2.1652569    1.8463398   -5.3794976 
H     1.5015542    3.3507013   -5.7378680 
N     3.3890190    1.2690738   -2.9453971 
C     4.6840912    1.2159189   -2.2435586 
H     3.0969405    0.5732302   -3.6659982 
C     5.6105923    2.3514622   -2.6835754 
O     6.5639296    2.1303945   -3.6717723 
O     5.5352951    3.6196896   -2.1071741 
H     4.7555698    3.6888387   -1.4677891 
C     5.3381490   -0.1693016   -2.4602663 
H     4.5141689    1.3468883   -1.1516538 
C     4.4733228   -1.2968309   -1.9399510 
H     6.3300937   -0.2074582   -1.9575032 
H     5.5336679   -0.3178362   -3.5467137 
C     4.2797615   -1.6404680   -0.6569366 
C     4.8044883   -1.1079882    0.4763650 
C     4.4349227   -1.6438492    1.6753032 
C     3.5576893   -2.6923496    1.7225018 
C     3.0457555   -3.2122055    0.5706760 
C     3.4280236   -2.6657977   -0.6021663 
H     5.5014928   -0.2764292    0.4404613 
H     4.8390022   -1.2343400    2.5982203 
H     3.2668467   -3.1133129    2.6818287 
H     2.3485585   -4.0432227    0.5887905 
N     3.0113866   -3.0496872   -1.9039234 
C     3.7342730   -2.1131461   -2.7116816 
H     2.3655974   -3.8175973   -2.2056361 
H     3.6708610   -2.0647352   -3.7964005 
