48
Energy =
C    -1.3109600    2.6454844   -1.8317058 
C    -0.6267272    3.3051164   -0.8629776 
C    -1.6204749    1.3305183   -1.6755774 
C    -1.2521389    0.6871373   -0.5449202 
C    -0.5606821    1.3396483    0.4234030 
C    -0.2397505    2.6539028    0.2678718 
H    -0.3750200    4.3539557   -1.0092467 
H    -1.5068616   -0.3610653   -0.4318751 
H    -0.2577121    0.8001426    1.3166057 
H    -1.6000224    3.1709345   -2.7359318 
C     0.5876803    3.3653343    1.3158952 
C     2.1028938    3.2815894    0.9997900 
H     0.3788375    2.9185179    2.3127709 
H     0.2731624    4.4328450    1.3901929 
C     2.4876496    4.1951041   -0.1548053 
O    -2.3050997    0.6144207   -2.6624208 
H    -2.5505406    1.1716115   -3.4743871 
O     2.2911774    5.5650029   -0.0235554 
N     2.8851588    3.6187510    2.1987952 
H     2.3610082    2.2433423    0.6970549 
H     2.6529515    4.5956322    2.5053299 
H     2.6362796    2.9728106    2.9836458 
N     2.7152330    3.6632717   -1.4652421 
C     4.0919976    3.2681274   -1.8158285 
H     1.8988066    3.4629708   -2.0857808 
C     4.5030318    3.8255168   -3.1790415 
O     3.5463786    4.0426825   -4.1652704 
O     5.8487979    4.0153850   -3.5049395 
H     6.4583846    3.8444209   -2.7190486 
C     4.2340634    1.7298779   -1.7640470 
H     4.8063207    3.7036706   -1.0796212 
C     3.2386962    1.0139498   -2.6568231 
H     4.0973135    1.3889369   -0.7159935 
H     5.2694254    1.4362880   -2.0440223 
C     3.3795140    0.7075327   -3.9574820 
C     4.4285611    0.9122448   -4.7955668 
C     4.3119052    0.5052931   -6.0920756 
C     3.1634517   -0.0957763   -6.5272570 
C     2.1233030   -0.2924751   -5.6685875 
C     2.2621081    0.1190416   -4.3909925 
H     5.3395726    1.3977274   -4.4583863 
H     5.1341996    0.6683385   -6.7847471 
H     3.0769289   -0.4120248   -7.5637097 
H     1.2031634   -0.7626785   -5.9988875 
N     1.3025639    0.0157171   -3.3488518 
C     2.0183508    0.6132711   -2.2617133 
H     0.3433749   -0.4049034   -3.3649855 
H     1.6180588    0.7452562   -1.2635472 
