48
Energy =
C    -4.3156265   -1.5374025   -0.1684623 
C    -2.9871065   -1.7249737   -0.3716819 
C    -5.1879219   -1.6460807   -1.2060624 
C    -4.7231689   -1.9404339   -2.4415128 
C    -3.3954513   -2.1280921   -2.6509626 
C    -2.5189540   -2.0251608   -1.6143985 
H    -2.3015034   -1.6301095    0.4667721 
H    -5.4289128   -2.0214750   -3.2608232 
H    -3.0426502   -2.3575604   -3.6529084 
H    -4.6777882   -1.2983525    0.8255877 
C    -1.0359657   -2.2163777   -1.8418855 
C    -0.2710666   -0.8731864   -1.8742546 
H    -0.8467410   -2.7756085   -2.7864134 
H    -0.6321881   -2.8567976   -1.0261416 
C     1.2267855   -1.1133544   -1.9155310 
O    -6.5631938   -1.4594737   -1.0311058 
H    -6.8292887   -1.2347022   -0.0786316 
O     1.7935979   -1.7170219   -3.0326434 
N    -0.6909176   -0.0573899   -3.0248787 
H    -0.4800049   -0.3064124   -0.9365905 
H    -0.6125776   -0.6162115   -3.9081807 
H    -1.6919605    0.2278095   -2.9105537 
N     1.9960311   -1.0692858   -0.7079604 
C     2.7211616    0.1726816   -0.3793319 
H     1.9910179   -1.8984672   -0.0728571 
C     1.7881680    1.3618620   -0.1539858 
O     1.5127533    1.7599603    1.1480576 
O     1.1952054    2.0684350   -1.2011371 
H     1.3732149    1.6535406   -2.1033492 
C     3.8262930    0.4530507   -1.4246521 
H     3.2208141    0.0220945    0.6049801 
C     4.9417007   -0.5643155   -1.3251737 
H     4.2474649    1.4713126   -1.2736773 
H     3.4074253    0.4338746   -2.4555276 
C     5.9613596   -0.5517924   -0.4521799 
C     6.2674644    0.3502284    0.5161026 
C     7.3708508    0.1248258    1.2853882 
C     8.1414103   -0.9862135    1.0796765 
C     7.8125088   -1.8796658    0.1037101 
C     6.7173968   -1.6338120   -0.6453804 
H     5.6550561    1.2313176    0.6853239 
H     7.6379082    0.8316116    2.0677530 
H     9.0186139   -1.1593991    1.6983597 
H     8.4104726   -2.7680854   -0.0697979 
N     6.1969874   -2.4369968   -1.6948410 
C     5.0416622   -1.6765617   -2.0752740 
H     6.5570051   -3.3378856   -2.0862450 
H     4.3378361   -1.9742393   -2.8501005 
