48
Energy =
C     2.1976322    5.0448059   -7.2321944 
C     2.2607438    4.0234344   -6.3413084 
C     3.3359826    5.6624208   -7.6456894 
C     4.5315003    5.2535187   -7.1634919 
C     4.6015537    4.2328223   -6.2718327 
C     3.4641800    3.6080145   -5.8569662 
H     1.3408813    3.5419913   -6.0187585 
H     5.4322432    5.7561735   -7.5004408 
H     5.5749584    3.9263601   -5.8952976 
H     1.2343060    5.3675052   -7.6123518 
C     3.5312578    2.4792630   -4.8495959 
C     3.1003370    2.9360262   -3.4267541 
H     4.5646341    2.0622201   -4.8187348 
H     2.8676474    1.6715523   -5.2206521 
C     3.0731830    1.8385742   -2.3530533 
O     3.3057572    6.7180688   -8.5619082 
H     2.3746825    6.9687726   -8.8768748 
O     2.8903560    2.2224917   -1.0314628 
N     3.9609525    4.0452270   -2.9808138 
H     2.0449947    3.2976643   -3.4636459 
H     4.9762562    3.8155706   -3.1065439 
H     3.7523083    4.9151380   -3.5239395 
N     3.0892251    0.4239020   -2.6356989 
C     4.3798822   -0.1869339   -2.2505903 
H     2.8437025    0.2131497   -3.6234959 
C     5.5195374    0.3570141   -3.0784414 
O     6.8759153    0.1550538   -2.8509743 
O     6.3259555    1.4309689   -2.6961700 
H     5.9277239    1.9440322   -1.9098859 
C     4.2917009   -1.7169455   -2.4060941 
H     4.6194311    0.0469223   -1.1837969 
C     3.3327012   -2.3161386   -1.4013660 
H     5.3022788   -2.1615549   -2.2422194 
H     3.9971326   -1.9885849   -3.4421898 
C     2.0319593   -2.5957935   -1.5849420 
C     1.2558271   -2.4582328   -2.6911468 
C    -0.0573203   -2.8189493   -2.6115872 
C    -0.5702426   -3.3054023   -1.4409432 
C     0.2272416   -3.4341751   -0.3427587 
C     1.5231318   -3.0720338   -0.4469212 
H     1.6601218   -2.0708468   -3.6197606 
H    -0.6995305   -2.7176987   -3.4828182 
H    -1.6181396   -3.5888162   -1.3842891 
H    -0.1633015   -3.8151644    0.5945564 
N     2.5117451   -3.1219609    0.5719466 
C     3.6522923   -2.6080298   -0.1281106 
H     2.4304583   -3.4500109    1.5613773 
H     4.6323446   -2.4562692    0.3194434 
