48
Energy =
C    -2.2339681   -1.1033787   -4.4959763 
C    -1.0470592   -1.5566006   -4.0155091 
C    -3.2866260   -0.9216750   -3.6548376 
C    -3.1443909   -1.1937803   -2.3379704 
C    -1.9600890   -1.6446149   -1.8520027 
C    -0.9023911   -1.8298181   -2.6890625 
H    -0.2069651   -1.6945198   -4.6972688 
H    -3.9919457   -1.0441465   -1.6779831 
H    -1.8667181   -1.8538771   -0.7897528 
H    -2.3389851   -0.8842793   -5.5536399 
C     0.4251884   -2.3230261   -2.1479508 
C     1.4475220   -1.1876117   -1.8842998 
H     0.8679475   -3.0491435   -2.8676620 
H     0.2677621   -2.8989826   -1.2097308 
C     1.8526536   -0.4614764   -3.1712413 
O    -4.5218789   -0.4572214   -4.1165957 
H    -4.5442703   -0.2668407   -5.1125395 
O     2.1310410   -1.2220499   -4.3044730 
N     0.9554295   -0.2771096   -0.8352513 
H     2.3798571   -1.6675637   -1.5161136 
H     0.0730221    0.1891847   -1.1545196 
H     0.7216692   -0.8261025    0.0246252 
N     2.2255712    0.9296721   -3.1952383 
C     3.6803510    1.2495250   -3.1758408 
H     1.7259049    1.4495238   -2.4398444 
C     4.0034316    2.1994127   -4.3231066 
O     4.7691922    3.3325479   -4.0764300 
O     3.6253247    1.9159943   -5.6363240 
H     3.0149710    1.1080797   -5.6670911 
C     4.6199669    0.0097668   -3.2106035 
H     3.9037495    1.8119699   -2.2391619 
C     6.0773753    0.3965443   -3.0652711 
H     4.4641683   -0.5661205   -4.1509001 
H     4.3668107   -0.6760594   -2.3770807 
C     6.9601030    0.6280760   -4.0519761 
C     6.8020222    0.5643766   -5.3997516 
C     7.8718390    0.8590416   -6.1925612 
C     9.0702616    1.2084584   -5.6347790 
C     9.2057232    1.2679608   -4.2797710 
C     8.1329478    0.9721809   -3.5161665 
H     5.8500559    0.3015135   -5.8510871 
H     7.7670961    0.8249193   -7.2745014 
H     9.9160032    1.4476269   -6.2745799 
H    10.1473264    1.5508220   -3.8216472 
N     8.0605919    0.9847806   -2.0974058 
C     6.6938291    0.6088738   -1.8886922 
H     8.8079201    1.2011882   -1.3986007 
H     6.2230487    0.5266383   -0.9116403 
