48
Energy =
C     0.0714045    0.5925644    3.4609043 
C     0.5915834   -0.1615514    2.4594630 
C     0.4815958    0.4027894    4.7432102 
C     1.4107591   -0.5396333    5.0154560 
C     1.9362802   -1.2932628    4.0206739 
C     1.5288442   -1.1120250    2.7316481 
H     0.2552897    0.0072607    1.4403420 
H     1.7323851   -0.6840461    6.0397803 
H     2.6870778   -2.0393365    4.2674397 
H    -0.6715364    1.3498946    3.2325865 
C     2.1252490   -1.9444902    1.6103510 
C     3.3083671   -1.2366242    0.8874438 
H     1.3170714   -2.2164835    0.8909210 
H     2.4764653   -2.9189827    2.0230491 
C     2.8676386    0.0074529    0.1569764 
O    -0.0336871    1.1621771    5.7975069 
H    -0.7185398    1.8543755    5.5119778 
O     3.2949428    1.2598504    0.5708675 
N     4.4028575   -0.9666553    1.8558755 
H     3.6875380   -1.8643183    0.0242905 
H     4.1606224   -0.1601565    2.4981834 
H     4.5809063   -1.7972188    2.4718605 
N     2.0650486   -0.1045550   -1.0189295 
C     2.6510580    0.3677265   -2.2883874 
H     1.1470900   -0.6034202   -0.9810135 
C     1.8575913    1.5520717   -2.8341129 
O     1.0314426    1.3918699   -3.9410928 
O     1.9310720    2.8072640   -2.2338419 
H     2.4668688    2.7805912   -1.3765473 
C     2.7022449   -0.8066269   -3.2924585 
H     3.6853450    0.7611248   -2.1398239 
C     3.5724183   -1.9333583   -2.7943811 
H     3.0825317   -0.4556179   -4.2777647 
H     1.6724664   -1.1915300   -3.4791510 
C     4.9128610   -1.9856059   -2.8169961 
C     5.8100977   -1.1077224   -3.3334592 
C     7.1386995   -1.3852806   -3.1973473 
C     7.5448251   -2.5198968   -2.5500991 
C     6.6245631   -3.3837078   -2.0340692 
C     5.3166160   -3.0887351   -2.1852313 
H     5.4882989   -0.2055237   -3.8456614 
H     7.8789566   -0.7003634   -3.6049779 
H     8.6059137   -2.7333238   -2.4449805 
H     6.9299763   -4.2853179   -1.5136597 
N     4.2054825   -3.8301299   -1.6998109 
C     3.1162164   -3.0164852   -2.1422987 
H     4.1844696   -4.7006232   -1.1194064 
H     2.0810465   -3.2082858   -1.8875836 
