48
Energy =
C     1.4710223    4.6499666   -2.4948320 
C     0.6791574    3.5490659   -2.5425723 
C     1.4980574    5.4246511   -1.3781149 
C     0.7293050    5.0917183   -0.3163669 
C    -0.0598169    3.9867791   -0.3568530 
C    -0.0865640    3.2044859   -1.4699188 
H     0.6837043    2.9327711   -3.4385939 
H     0.7657499    5.7183314    0.5685854 
H    -0.6553533    3.7181295    0.5104420 
H     2.0900575    4.9019643   -3.3500361 
C    -0.9502066    1.9582930   -1.5093607 
C    -0.2360036    0.6733261   -1.0194495 
H    -1.3019490    1.7901287   -2.5524188 
H    -1.8702754    2.1148668   -0.9063611 
C     0.9589773    0.2943432   -1.8856093 
O     2.3031903    6.5652476   -1.2928366 
H     2.9049552    6.6962145   -2.1001487 
O     0.7101204   -0.5672155   -2.9428695 
N     0.1018282    0.7476756    0.4134628 
H    -0.9551135   -0.1683339   -1.1538864 
H     0.7033795    1.5777697    0.6133325 
H    -0.7757283    0.8414880    0.9771382 
N     2.1942355    1.0369414   -1.7654690 
C     3.4113594    0.8000123   -2.5972595 
H     2.4631581    0.9618143   -0.7583080 
C     3.9847304    2.1588408   -2.9933395 
O     3.6631247    2.7200228   -4.2255474 
O     4.8087790    2.8826532   -2.1303549 
H     4.8706695    2.4558387   -1.2180983 
C     3.2765119   -0.1105388   -3.8603004 
H     4.1884286    0.3433289   -1.9453169 
C     3.5475129   -1.5795449   -3.5734653 
H     4.0409870    0.1845309   -4.6136817 
H     2.3217643    0.0671608   -4.3961147 
C     4.7378586   -2.1152341   -3.2464944 
C     5.9477443   -1.5165740   -3.0842265 
C     7.0200686   -2.2957658   -2.7639181 
C     6.8735518   -3.6474558   -2.6213525 
C     5.6543526   -4.2288640   -2.8031627 
C     4.6076473   -3.4362857   -3.1148494 
H     6.0746132   -0.4454855   -3.2139522 
H     7.9980794   -1.8401460   -2.6275025 
H     7.7340159   -4.2623224   -2.3698015 
H     5.5233744   -5.3012617   -2.7057690 
N     3.2741619   -3.8434267   -3.3760346 
C     2.6562416   -2.5843675   -3.6786148 
H     2.8572883   -4.8024026   -3.3624794 
H     1.6214646   -2.4788073   -3.9945553 
