48
 energy: -8.851434996304 gnorm: 0.000728878066 xtb: 6.6.0 (2ccbbd7)
C           -2.68111091228700       -2.55330747913278       -1.03080152937823
C           -1.36533528076813       -2.72285689560091       -0.66440175070453
C           -3.11822770881958       -1.35082107173927       -1.59098372110925
C           -2.18455088403388       -0.32799290648192       -1.76432712877291
C           -0.88010451683800       -0.51507293896189       -1.39265841683071
C           -0.43828902999211       -1.70458680523506       -0.84737121185649
H           -1.04379885788814       -3.65269398157753       -0.22710477062116
H           -2.50740462040558        0.60484122225470       -2.19039969954272
H           -0.00870832819738        0.34463675374835       -1.50815395444739
H           -3.39000502111036       -3.34902781656353       -0.88622362405149
C            0.99242439415361       -1.87518271858093       -0.42433942709248
C            2.01234274421219       -1.17289220781353       -1.33669288100640
H            1.22501020368612       -2.94388333617520       -0.38219514765258
H            1.11533053562878       -1.50247284662963        0.59677559462983
C            1.99040688851948        0.31726884997548       -1.14292392313052
O           -4.43256530556982       -1.15250354623150       -1.96909145213580
H           -4.96122024029870       -1.95820734467667       -1.78028183075056
O            0.88887082054396        1.03130695286975       -1.54017341927383
N            3.36778837908153       -1.68288127082701       -1.14450714994557
H            1.73677977034936       -1.37502646545673       -2.38350021250300
H            3.72270646571735       -1.33161473428776       -0.26044285495785
H            3.37469689191446       -2.69409727856326       -1.10493517928747
N            3.09366012673274        0.96286676271960       -0.53573993709424
C            4.12143805001565        1.63338989509720       -1.35484659744198
H            2.84036485179925        1.61340251041705        0.20550240938613
C            3.79609305823608        3.09325464406305       -1.48759611328092
O            4.81147964254543        4.00459742318537       -1.49646315151592
O            2.47460438365635        3.45065767892712       -1.60906625770250
H            1.90117812482898        2.64004741636256       -1.60305270559320
C            4.30874528181203        0.96688409030956       -2.73298668999900
H            5.06582962746708        1.54123168702285       -0.79813572923611
C            5.72028775120857        0.91963105304659       -3.22784686814427
H            3.67365174679375        1.46994363403502       -3.46894679362053
H            3.93795836317647       -0.06093437907135       -2.67685479783854
C            6.73890481499806        1.91250749479755       -3.10070261073573
C            6.77860018490774        3.17723741925936       -2.50108887630879
C            7.92973548418257        3.90489193965836       -2.54854558346351
C            9.07582438136134        3.40451760483064       -3.18818247962680
C            9.06874794020702        2.17281739608627       -3.78404689648258
C            7.89091030113709        1.41472605987105       -3.74375877887009
H            5.76229797448886        3.60781419424901       -1.96211411450729
H            7.95688739398425        4.87962909772808       -2.09066304087077
H            9.97157883873323        4.00282473840919       -3.21057607758082
H            9.93910631027097        1.78053271917225       -4.27883943967842
N            7.57755815704230        0.16593897694071       -4.24822660268577
C            6.27111053765837       -0.11987966975696       -3.93737154500135
H            8.22170196368830       -0.42848558718434       -4.77322429177192
H            5.75971531331411       -1.02886701621675       -4.20974287869138
