48
Energy =
C    -0.4376267   -1.6325126   -2.9980036 
C    -0.5808607   -0.2833575   -3.0327114 
C     0.2761622   -2.2193641   -2.0003562 
C     0.8302318   -1.4511609   -1.0351033 
C     0.6855336   -0.1015657   -1.0619889 
C    -0.0109596    0.4930324   -2.0703118 
H    -1.1459297    0.1710938   -3.8421759 
H     1.3993650   -1.9297638   -0.2456061 
H     1.1558354    0.5012050   -0.2876929 
H    -0.8890112   -2.2399524   -3.7749427 
C    -0.1220639    2.0036508   -2.1358847 
C     0.9961749    2.6777630   -2.9741436 
H    -0.0939646    2.4217032   -1.1034782 
H    -1.1155609    2.2891414   -2.5451202 
C     2.3832721    2.4054966   -2.4251118 
O     0.4604428   -3.6053504   -1.9488739 
H    -0.0138937   -4.1098443   -2.6896960 
O     2.7954680    3.0693582   -1.2772988 
N     0.8849031    2.3275423   -4.3999937 
H     0.8843002    3.7839738   -2.8776621 
H     1.0748891    1.3090250   -4.5424901 
H    -0.0816493    2.5271718   -4.7473193 
N     3.1467221    1.2770299   -2.8652812 
C     4.3300063    1.4758317   -3.7328393 
H     2.7725305    0.3325277   -2.6410982 
C     4.3893495    2.8514663   -4.4134983 
O     4.1565665    2.9673926   -5.7797439 
O     4.7348667    4.0007911   -3.7036633 
H     4.7635574    3.8276896   -2.7078031 
C     4.3993006    0.3300202   -4.7759271 
H     5.2376367    1.4261556   -3.0936463 
C     4.5016794   -1.0362277   -4.1315469 
H     5.2691680    0.4783472   -5.4546209 
H     3.4917013    0.3735704   -5.4202526 
C     5.5843163   -1.5742684   -3.5500012 
C     6.8460179   -1.0854256   -3.4388770 
C     7.7752382   -1.8359445   -2.7799535 
C     7.4324983   -3.0480014   -2.2465287 
C     6.1582355   -3.5175101   -2.3695775 
C     5.2583087   -2.7584991   -3.0288332 
H     7.1198286   -0.1240264   -3.8629898 
H     8.7936466   -1.4684079   -2.6773158 
H     8.1781405   -3.6392308   -1.7206734 
H     5.8677887   -4.4743331   -1.9488906 
N     3.8868824   -3.0520833   -3.2532173 
C     3.4738029   -1.8918272   -3.9839669 
H     3.3278565   -3.8952867   -2.9836730 
H     2.4562632   -1.7124859   -4.3236579 
