48
Energy =
C     1.3819881   -2.4027384    0.9959158 
C     0.3910203   -1.9298572    0.1977435 
C     2.1193473   -1.5453596    1.7503091 
C     1.8491778   -0.2209537    1.7132083 
C     0.8565398    0.2555267    0.9202703 
C     0.1355385   -0.5936230    0.1360431 
H    -0.1986042   -2.6282256   -0.3893714 
H     2.4409689    0.4557031    2.3224183 
H     0.6582589    1.3256206    0.9056862 
H     1.5840710   -3.4682794    1.0298456 
C    -0.9565820   -0.0560106   -0.7695515 
C    -0.5272881    0.2266874   -2.2296599 
H    -1.3585415    0.8889442   -0.3385860 
H    -1.8160857   -0.7600044   -0.7806477 
C     0.6964937    1.1564035   -2.3735309 
O     3.1574796   -1.9999996    2.5682783 
H     3.2843902   -3.0058298    2.5568859 
O     0.5272068    2.5063610   -2.6448914 
N    -0.3116422   -1.0261598   -3.0008537 
H    -1.3638016    0.8002504   -2.7013006 
H     0.2611536   -1.7187637   -2.4655099 
H    -1.2206730   -1.5162971   -3.1798150 
N     2.9346934    0.2357179   -2.3152777 
C     4.1018605    1.1584111   -2.4944053 
H     3.0887243   -0.5472915   -1.6218580 
C     4.3167780    2.1300747   -1.3303432 
O     4.5537692    3.4768282   -1.5760989 
O     4.3488805    1.6807332   -0.0088530 
H     4.3215110    0.6737441    0.0514709 
C     4.0060756    1.8709011   -3.8580566 
H     5.0254209    0.5379753   -2.5193054 
C     3.6514034    0.8748102   -4.9321566 
H     4.9632147    2.3870077   -4.0931694 
H     3.2065165    2.6458049   -3.8147773 
C     2.5636769    0.1123922   -4.8971857 
C     1.6675482    0.0330358   -3.8867865 
C     0.3820654   -0.7186549   -4.2497619 
C     0.6989799   -1.9116307   -5.1326472 
C     1.7144984   -1.7851745   -6.0288710 
C     2.5629535   -0.7309259   -5.9337422 
H     2.0281266    1.1363624   -1.1820220 
H    -0.2482126   -0.0194787   -4.8668049 
H     0.0143672   -2.7542694   -5.1856249 
H     1.8696320   -2.5375666   -6.7956571 
N     3.7159363   -0.5040355   -6.7431050 
C     4.3685545    0.5532466   -6.0197268 
H     4.0151885   -0.9908248   -7.6208755 
H     5.3234164    0.9954206   -6.2962544 
