48
Energy =
C    -0.2913045   -1.9540879    2.0961926 
C     0.0913952   -0.9295777    1.2926219 
C    -1.2239009   -2.8464739    1.6687392 
C    -1.7658526   -2.7074356    0.4378867 
C    -1.3847210   -1.6865382   -0.3708787 
C    -0.4522453   -0.7889047    0.0526192 
H     0.8470769   -0.2317860    1.6449762 
H    -2.5074759   -3.4262839    0.1087364 
H    -1.8300876   -1.5960325   -1.3571626 
H     0.1551312   -2.0593113    3.0790393 
C    -0.0177063    0.3473249   -0.8508653 
C     1.2849914    0.0552259   -1.6382573 
H     0.1151997    1.2682840   -0.2399057 
H    -0.8308111    0.5868024   -1.5710869 
C     2.5153345    0.0163791   -0.7411903 
O    -1.6425648   -3.9130556    2.4718866 
H    -1.1761440   -3.9529308    3.3715681 
O     2.8719398   -1.1464683   -0.0652330 
N     1.1587408   -1.1649092   -2.4528291 
H     1.4546369    0.9105002   -2.3308964 
H     1.1261418   -2.0007063   -1.8181166 
H     0.2586492   -1.1467238   -2.9854498 
N     3.2702396    1.2143073   -0.5094184 
C     4.7404238    1.1165527   -0.6154417 
H     2.7670843    2.1245127   -0.4001645 
C     5.4071891    2.4686430   -0.4181245 
O     5.9619062    2.7978969    0.8109571 
O     5.4703466    3.3916253   -1.4588990 
H     4.9045385    3.0092917   -2.3755278 
C     5.1669223    0.4752358   -1.9579772 
H     5.1140026    0.4744004    0.2167713 
C     4.4599106    1.0895821   -3.1593105 
H     4.9750633   -0.6157373   -1.8794594 
H     6.2657603    0.5869378   -2.0959764 
C     3.8825524    0.4089958   -4.1626395 
C     3.7926885   -0.9365715   -4.3558658 
C     3.1446952   -1.3979108   -5.4618676 
C     2.6026564   -0.5226768   -6.3562884 
C     2.7065172    0.8179789   -6.1481294 
C     3.3518985    1.2546462   -5.0437058 
H     4.2107694   -1.6499836   -3.6547572 
H     3.0560402   -2.4691065   -5.6292409 
H     2.0861640   -0.8970855   -7.2372994 
H     2.2807633    1.5250192   -6.8531415 
N     3.5440466    2.6148084   -4.6850052 
C     4.2707049    2.5863533   -3.4051110 
H     3.2209615    3.4487798   -5.2323304 
H     4.3357314    3.6917237   -3.3097387 
