48
Energy =
C    -0.9911558   -2.5231602    0.0967983 
C     0.3115401   -2.7696843   -0.1923464 
C    -1.3180683   -1.6839439    1.1157863 
C    -0.3379366   -1.0972719    1.8394784 
C     0.9660956   -1.3391034    1.5539667 
C     1.2990937   -2.1821967    0.5376986 
H     0.5579631   -3.4362763   -1.0149792 
H    -0.6116754   -0.4275885    2.6477452 
H     1.7400158   -0.8459066    2.1380729 
H    -1.7700513   -2.9960784   -0.4919973 
C     2.7517283   -2.4238554    0.1880847 
C     3.2009249   -1.5697528   -1.0186062 
H     2.8954221   -3.5017994   -0.0440674 
H     3.4049394   -2.2026075    1.0625841 
C     3.0363182   -0.0793107   -0.7566993 
O    -2.6495022   -1.4033409    1.4363149 
H    -3.3242614   -1.8797788    0.8473873 
O     3.5574750    0.4594531    0.4190303 
N     4.5944411   -1.8882844   -1.3659881 
H     2.5540039   -1.8176387   -1.8919728 
H     5.2208393   -1.6664061   -0.5538571 
H     4.6880644   -2.9117484   -1.5667352 
N     2.0012542    0.6419554   -1.4476480 
C     2.3619446    2.0768052   -1.6316372 
H     1.1935316    0.5455709   -0.7985023 
C     1.1872983    2.9600643   -2.0948186 
O     1.4538209    4.1068388   -2.8308361 
O    -0.1322709    2.7758005   -1.6776656 
H    -0.2408832    2.0786832   -0.9659992 
C     3.5840427    2.2020562   -2.5929554 
H     2.6551300    2.5278759   -0.6534191 
C     3.3140721    1.6760949   -3.9936796 
H     4.4542727    1.6522149   -2.1725074 
H     3.9144857    3.2615172   -2.6339189 
C     3.1173529    2.3904945   -5.1190082 
C     3.1059693    3.7352672   -5.3172318 
C     2.8952013    4.2067624   -6.5798830 
C     2.7113830    3.3390433   -7.6194201 
C     2.7389503    1.9943467   -7.4029221 
C     2.9429863    1.5522003   -6.1443188 
H     3.2551440    4.4328048   -4.5003112 
H     2.8712192    5.2791962   -6.7588217 
H     2.5440011    3.7225151   -8.6228524 
H     2.6020917    1.2912003   -8.2173965 
N     3.0313561    0.2013041   -5.7201422 
C     3.2807764    0.3714470   -4.3198135 
H     2.9449216   -0.6787651   -6.2779847 
H     3.4630812   -0.4461006   -3.6320053 
