48
Energy =
C     2.7984175    7.1185931   -0.8161318 
C     2.4874778    5.8881800   -0.3619299 
C     2.9488338    7.3780538   -2.1362620 
C     2.7910527    6.4182826   -3.0656752 
C     2.4771051    5.1510264   -2.7421719 
C     2.3042990    4.6945327   -1.2866217 
H     2.3948594    5.7286468    0.7080099 
H     2.9196346    6.6856266   -4.1086299 
H     2.3409157    4.4345750   -3.5458782 
H     2.9322934    7.9209735   -0.0982426 
C     0.8607017    4.1437696   -1.0991296 
C     0.6179073    2.7140390   -1.6791906 
H     0.1429280    4.8598601   -1.5562003 
H     0.6083645    4.1086512   -0.0155900 
C     1.3223456    1.6262251   -0.8714255 
O     3.2652956    8.6684471   -2.5796832 
H     3.3970062    9.3484198   -1.8386271 
O     1.2047842    1.6034940    0.5165883 
N    -0.8280558    2.4433680   -1.7414014 
H     1.0379709    2.6435592   -2.7088597 
H    -1.2307252    2.4822628   -0.7733178 
H    -1.3083927    3.1722643   -2.3187033 
N     2.3491049    0.8258864   -1.4819510 
C     3.7038259    1.3936610   -1.2571065 
H     2.2890257   -0.0990952   -0.9973420 
C     3.7619576    2.8895640   -1.6083591 
O     4.3804251    3.3069480   -2.7808197 
O     3.2033466    3.7083975   -0.8670046 
H     3.0548729    3.4089489    0.0427817 
C     4.7523925    0.5383535   -2.0152931 
H     3.9567384    1.3225048   -0.1728048 
C     4.4447642    0.3473477   -3.4934640 
H     4.7995819   -0.4672619   -1.5437280 
H     5.7593584    0.9847620   -1.8793362 
C     5.0945561    0.8823058   -4.5447557 
C     6.1471405    1.7411450   -4.5819123 
C     6.6324247    2.1252971   -5.7976486 
C     6.0696922    1.6478234   -6.9478420 
C     5.0160579    0.7859944   -6.8894622 
C     4.5509702    0.4243375   -5.6752080 
H     6.5849338    2.1389738   -3.6729685 
H     7.4663011    2.8205538   -5.8514016 
H     6.4611046    1.9592354   -7.9127376 
H     4.5582649    0.3972135   -7.7924952 
N     3.4801135   -0.4660098   -5.4026243 
C     3.4812101   -0.4633481   -3.9698015 
H     2.8644849   -0.9868254   -6.0677075 
H     2.8036928   -1.0527015   -3.3579810 
