48
Energy =
C     5.2860583    3.5575825    3.5106390 
C     4.8105779    2.6136950    2.6599258 
C     4.7495448    3.6905850    4.7530608 
C     3.7385050    2.8773247    5.1348714 
C     3.2575494    1.9322365    4.2877353 
C     3.7940690    1.7930342    3.0445688 
H     5.2478676    2.5229446    1.6672828 
H     3.3184547    2.9952327    6.1276534 
H     2.4410163    1.2927378    4.6124077 
H     6.0950180    4.2065397    3.1927741 
C     3.2554262    0.7541462    2.0870824 
C     2.3700662    1.3837515    0.9864696 
H     2.6799912   -0.0324125    2.6259616 
H     4.1187359    0.2263447    1.6232759 
C     2.1112458    0.3845841   -0.1256550 
O     5.2159043    4.6530206    5.6547831 
H     5.9696354    5.2260085    5.2908060 
O     1.4300672   -0.7995599    0.1304460 
N     1.1013920    1.8712350    1.5516975 
H     2.9106100    2.2408172    0.5165850 
H     0.5935611    1.0814809    2.0183148 
H     1.2900859    2.6042579    2.2747989 
N     2.5213456    0.6641184   -1.4660335 
C     3.9675219    0.6369841   -1.7521262 
H     1.7837117    0.8669688   -2.1770599 
C     4.4838092    2.0352602   -2.0572333 
O     5.3443181    2.6462605   -1.1534215 
O     4.1002930    2.7368476   -3.1993712 
H     3.4305446    2.2210204   -3.7484058 
C     4.2402838   -0.3578209   -2.8993725 
H     4.5465310    0.3017456   -0.8581149 
C     4.2383075   -1.7835654   -2.3896235 
H     5.2133273   -0.1306177   -3.3868504 
H     3.4691839   -0.2546538   -3.6941072 
C     5.3090208   -2.5309612   -2.0714522 
C     6.6339118   -2.2371304   -2.1447064 
C     7.5311000   -3.1811901   -1.7392173 
C     7.0976202   -4.3886446   -1.2663849 
C     5.7636287   -4.6588053   -1.1937687 
C     4.8956013   -3.7109819   -1.6047561 
H     6.9858550   -1.2768848   -2.5081881 
H     8.5969357   -2.9704831   -1.7882522 
H     7.8190577   -5.1344134   -0.9418017 
H     5.4020965   -5.6077679   -0.8124532 
N     3.4778435   -3.7824015   -1.5860440 
C     3.1304158   -2.4882590   -2.0988046 
H     2.8550036   -4.5683509   -1.2883600 
H     2.1129616   -2.1040302   -2.1707560 
