48
Energy =
C    -2.2114012   -2.5756467   -0.2100240 
C    -0.9553386   -2.1709484   -0.5268846 
C    -2.8825347   -1.9836511    0.8140980 
C    -2.2912488   -0.9887161    1.5137848 
C    -1.0355274   -0.5801754    1.2012655 
C    -0.3576568   -1.1728201    0.1807309 
H    -0.4343285   -2.6492040   -1.3518056 
H    -2.8373209   -0.5223943    2.3263200 
H    -0.5778636    0.2241035    1.7717940 
H    -2.6782430   -3.3723881   -0.7787925 
C     1.0336717   -0.7025410   -0.1805600 
C     1.0077554    0.5999397   -1.0136279 
H     1.5842126   -1.4967073   -0.7297974 
H     1.6059990   -0.5262613    0.7581133 
C     2.4059683    1.1704780   -1.1759831 
O    -4.1781708   -2.3766003    1.1657435 
H    -4.5490497   -3.1287562    0.5958585 
O     2.6978715    2.2409649   -0.6198659 
N     0.3730442    0.3761204   -2.3211458 
H     0.4279938    1.3766469   -0.4591212 
H     0.7887668   -0.4642807   -2.7826343 
H    -0.6483163    0.1946165   -2.1888420 
N     3.4001692    0.5063172   -1.9841012 
C     4.4280195    1.3985046   -2.5525473 
H     3.3770967   -0.5240808   -2.1457656 
C     4.2610892    2.8155731   -2.0075205 
O     4.8946506    3.8911078   -2.6243949 
O     3.5616304    3.0054922   -1.0034977 
H     3.6257229    2.3465933   -0.2549239 
C     4.3808724    1.3395188   -4.0948341 
H     5.4296782    1.0599666   -2.2115245 
C     2.9997569    1.6309737   -4.6499428 
H     4.7329825    0.3420090   -4.4270715 
H     5.1027414    2.0730578   -4.5199948 
C     2.1172975    0.7410256   -5.1350916 
C     2.2166370   -0.6086552   -5.2664899 
C     1.1547368   -1.2904210   -5.7839994 
C     0.0210634   -0.6235520   -6.1567095 
C    -0.0572672    0.7298157   -6.0156366 
C     1.0071109    1.3831231   -5.5048621 
H     3.1087788   -1.1458591   -4.9636797 
H     1.2094886   -2.3700556   -5.8994405 
H    -0.8220127   -1.1736697   -6.5666760 
H    -0.9503204    1.2744319   -6.3021490 
N     1.1218160    2.7784504   -5.2692206 
C     2.4398535    2.8536128   -4.7075916 
H     0.4375924    3.5439750   -5.4667874 
H     2.9071589    3.7709472   -4.3500090 
