48
Energy =
C    -1.0443948    4.6282341   -1.2431525 
C     0.0075109    4.1838392   -1.9770001 
C    -2.3027828    4.1956696   -1.5216602 
C    -2.4998412    3.3191424   -2.5317647 
C    -1.4519331    2.8696083   -3.2664358 
C    -0.1884205    3.2991035   -2.9931724 
H     1.0100584    4.5280917   -1.7368487 
H    -3.5078929    2.9803608   -2.7432978 
H    -1.6325764    2.1629835   -4.0719126 
H    -0.8765603    5.3264742   -0.4304112 
C     0.9846807    2.7962035   -3.8111315 
C     1.7162029    1.5712266   -3.1945999 
H     1.7031748    3.6293385   -3.9788984 
H     0.6393389    2.5230903   -4.8329853 
C     2.4631759    1.9068355   -1.8927092 
O    -3.4088987    4.6356862   -0.7878140 
H    -3.1784872    5.2765916   -0.0363067 
O     1.7078747    2.0650042   -0.7341564 
N     0.7828557    0.4488489   -2.9978161 
H     2.4516966    1.2279146   -3.9403940 
H     0.0927320    0.6820705   -2.2440787 
H     0.2456741    0.2716047   -3.8784034 
N     3.8750237    2.2229626   -1.7770054 
C     4.7540721    2.1656444   -2.9726612 
H     3.9206886    3.1686234   -1.3347295 
C     4.3473429    3.1411709   -4.0804663 
O     3.9489814    2.6848610   -5.3299813 
O     4.3220430    4.5157429   -3.8505811 
H     4.7161800    4.7596845   -2.9548026 
C     4.9692559    0.6869478   -3.4180290 
H     5.7449534    2.5646833   -2.6528733 
C     6.4293958    0.2916808   -3.3942270 
H     4.5671808    0.4907859   -4.4341334 
H     4.4081045   -0.0005257   -2.7450367 
C     7.3372221    0.5079871   -4.3583163 
C     7.1904554    1.0800954   -5.5805674 
C     8.2899747    1.1927611   -6.3792975 
C     9.5063822    0.7394156   -5.9487693 
C     9.6306145    0.1713574   -4.7154628 
C     8.5274385    0.0693455   -3.9445288 
H     6.2262323    1.4438947   -5.9244350 
H     8.1969178    1.6478305   -7.3627510 
H    10.3779768    0.8348851   -6.5915938 
H    10.5889979   -0.1887837   -4.3569870 
N     8.4433772   -0.4686740   -2.6319063 
C     7.0510744   -0.2771817   -2.3464909 
H     9.1943930   -0.8868387   -2.0359681 
H     6.5732486   -0.5362063   -1.4039158 
