48
 energy: -9.287245328791 gnorm: 0.000461462834 xtb: 6.6.0 (2ccbbd7)
C            3.47060961659474        2.54789549779121        5.73723169152547
C            2.93274408291838        1.72213326139862        4.77867421775741
C            4.63032880640284        3.27873530910085        5.47633135205932
C            5.22288507778989        3.15226732279071        4.22021246892886
C            4.67904854863768        2.32567639769210        3.26762204370268
C            3.53028283336889        1.59479681782153        3.53298261180910
H            2.03671094869857        1.16426826628409        4.99047936206618
H            6.11308877568570        3.72003686081208        4.01539075357073
H            5.13709604929118        2.24564589232016        2.29481178251244
H            3.00147925692132        2.63800588563552        6.70054746348992
C            2.93373523105319        0.71979629704219        2.47516150295221
C            2.31493913365638        1.52052138310734        1.32661706569608
H            2.16538282309264        0.07263020932663        2.90777574593884
H            3.70543613881985        0.04648688908578        2.09126904655994
C            1.88512601779543        0.60892115733140        0.19923825113730
O            5.19768878204810        4.11346051740273        6.41984534558795
H            4.66930627699014        4.09596965705200        7.24676034112561
O            0.75166402452198        0.17470041568565        0.23614800895112
N            1.16197056656525        2.29486868551239        1.76077241610049
H            3.04998636119024        2.24455482079767        0.94659756548324
H            0.35682767121374        1.67408707911458        1.78465743125124
H            1.30921515178139        2.67605027585119        2.68747256630573
N            2.75221549995975        0.27014095378004       -0.82372735336510
C            4.21866428411618        0.33063859229049       -0.73738564642247
H            2.43628692238622       -0.43421287819608       -1.48335078713778
C            4.69488633438844        1.73081941050004       -0.43254700561730
O            5.59122076669507        1.86568643881676        0.37262646113919
O            4.06049535409010        2.73139466485922       -1.08775728769424
H            3.33923175770858        2.36709619726034       -1.65221628192830
C            4.87859709700420       -0.19716800568245       -2.01022896531780
H            4.51994179369639       -0.31375257307562        0.09930127864662
C            4.55831490841504       -1.63153690797891       -2.25792531993367
H            5.96394540023454       -0.06831614861246       -1.94443375992779
H            4.55386240093868        0.40736126314812       -2.86148853545943
C            3.45206084777069       -2.14365265300591       -3.00107447271443
C            2.44013905108245       -1.53131480108525       -3.76153638107779
C            1.47729169250234       -2.31967717806246       -4.32804126605950
C            1.48856480256797       -3.71411868052905       -4.16281713219846
C            2.46402501615717       -4.33237719851696       -3.42996126139193
C            3.45901389809020       -3.54291174002883       -2.84030500893082
H            2.43530465431155       -0.46363141595030       -3.89389718863924
H            0.69362243885158       -1.86481189834001       -4.91097147936915
H            0.71255277875475       -4.30541150447621       -4.62005006968494
H            2.47747297276960       -5.39873750718315       -3.29289063070933
N            4.53691007164335       -3.86451590547182       -2.03483798606458
C            5.18442055820669       -2.70776888166451       -1.67899969391206
H            4.76839569220909       -4.80925882481555       -1.72254808611796
H            6.03480684069221       -2.65457244262458       -1.01836327849726
