48
Energy =
C    -2.0375167   -3.0985298   -0.6903476 
C    -1.1773680   -2.2557240   -1.3155961 
C    -3.3799675   -2.9231894   -0.8179853 
C    -3.8518422   -1.9037333   -1.5711070 
C    -2.9956709   -1.0579656   -2.1983617 
C    -1.6509127   -1.2318428   -2.0766441 
H    -0.1092566   -2.4044926   -1.2011123 
H    -4.9243520   -1.7730016   -1.6644083 
H    -3.3961283   -0.2426823   -2.7952471 
H    -1.6493884   -3.9117584   -0.0869842 
C    -0.6909180   -0.2843650   -2.7618575 
C    -0.0174684    0.7048035   -1.7773766 
H    -1.2037499    0.2899180   -3.5669340 
H     0.0911949   -0.8823414   -3.2812402 
C     1.0225933    1.5757565   -2.4716605 
O    -4.2935889   -3.7729675   -0.1855316 
H    -3.8610031   -4.5121938    0.3569932 
O     1.1939264    1.4965548   -3.8502130 
N    -1.0264988    1.5445815   -1.1108656 
H     0.5383290    0.1262457   -1.0071792 
H    -1.6108594    2.0310416   -1.8328007 
H    -1.6664479    0.9487974   -0.5354425 
N     1.8026192    2.5069056   -1.7039988 
C     3.2295720    2.7315262   -2.0160688 
H     1.3721148    2.9130018   -0.8428896 
C     3.4462712    3.6376350   -3.2304335 
O     2.3734364    4.2242961   -3.8866928 
O     4.7356173    3.9628750   -3.6639685 
H     5.4415457    3.7187036   -2.9873139 
C     4.0488078    1.4094211   -2.0266054 
H     3.6419573    3.3286815   -1.1733122 
C     3.8119953    0.4945269   -3.2213439 
H     3.8395014    0.8816067   -1.0751921 
H     5.1333510    1.6458172   -1.9930591 
C     3.3392443   -0.7670118   -3.1916529 
C     2.9323784   -1.5285385   -2.1396540 
C     2.5049552   -2.8002800   -2.3842211 
C     2.4813966   -3.2879762   -3.6599501 
C     2.8948011   -2.5109705   -4.6994073 
C     3.3203747   -1.2586992   -4.4334389 
H     2.9398803   -1.1541464   -1.1223758 
H     2.1811461   -3.4319140   -1.5603017 
H     2.1350849   -4.3018420   -3.8474665 
H     2.8871442   -2.8850502   -5.7181588 
N     3.8104569   -0.3104364   -5.3672715 
C     4.1092004    0.7952911   -4.5030781 
H     3.9467848   -0.4023621   -6.4009127 
H     4.5058359    1.7467700   -4.8529739 
