48
Energy =
C    -1.4012555   -1.3063286   -4.5642818 
C    -0.8324173   -0.9542446   -3.3831334 
C    -2.1619114   -0.4043879   -5.2475911 
C    -2.3505736    0.8216267   -4.7439455 
C    -1.7867401    1.1839037   -3.5775494 
C    -1.0085439    0.3046803   -2.8843378 
H    -0.2314098   -1.6803884   -2.8503452 
H    -2.9532808    1.5242255   -5.2857698 
H    -1.9782605    2.1892270   -3.2347066 
H    -1.2427677   -2.3058463   -4.9585872 
C    -0.3394713    0.7263939   -1.5879123 
C     1.2086075    0.6938896   -1.6624193 
H    -0.6762159    0.0322029   -0.7864806 
H    -0.6655296    1.7452068   -1.2796001 
C     1.7425688    1.6089663   -2.7619878 
O    -2.7673240   -0.6975377   -6.4691613 
H    -2.6109087   -1.6507470   -6.7730174 
O     1.4004834    1.3549059   -4.0839590 
N     1.8031351    1.0186899   -0.3503192 
H     1.5266202   -0.3401662   -1.9177830 
H     1.4260438    1.9454782   -0.0340868 
H     1.4678969    0.3138672    0.3484796 
N     2.9017432    2.4374500   -2.5454331 
C     4.1960508    1.8136961   -2.1804748 
H     2.7909598    3.4713106   -2.6671827 
C     5.3184874    2.7784694   -2.3881087 
O     5.9785575    3.2960779   -1.2879994 
O     5.7460827    3.0920137   -3.6713631 
H     5.1339168    2.5197263   -4.4525904 
C     4.4767150    0.5027081   -2.9783817 
H     4.2250894    1.6463437   -1.0729135 
C     4.1976622    0.6358033   -4.4778979 
H     3.8595262   -0.3055381   -2.5348361 
H     5.5376078    0.1902483   -2.8468413 
C     3.5148634   -0.2552933   -5.2168412 
C     3.0871568   -1.5060856   -4.8796166 
C     2.3509701   -2.2111014   -5.7817833 
C     2.0420247   -1.6659819   -6.9913110 
C     2.4748975   -0.4160330   -7.3111804 
C     3.2223228    0.2630732   -6.4132330 
H     3.3063107   -1.9530645   -3.9172496 
H     1.9868221   -3.2052892   -5.5311874 
H     1.4258834   -2.2243466   -7.6931472 
H     2.1938500    0.0311910   -8.2574782 
N     3.6866387    1.5989587   -6.5735624 
C     4.4451304    1.8848327   -5.3319478 
H     3.6062101    2.1487007   -7.4683610 
H     4.8075611    2.8992594   -5.6126541 
