48
Energy =
C     0.3083312   -5.6872389    0.2125023 
C     0.7599855   -4.4795411    0.6361611 
C    -0.3142505   -5.8006678   -0.9912841 
C    -0.4800388   -4.7029669   -1.7637058 
C    -0.0303863   -3.4930230   -1.3453427 
C     0.5902993   -3.3735508   -0.1398449 
H     1.2606534   -4.4065264    1.5982247 
H    -0.9766118   -4.8057940   -2.7222008 
H    -0.1705840   -2.6233331   -1.9820216 
H     0.4477966   -6.5622458    0.8379918 
C     1.1058887   -2.0274300    0.3184704 
C     2.4324574   -1.6400942   -0.3744013 
H     1.2436404   -2.0084808    1.4232782 
H     0.3319623   -1.2576531    0.1001485 
C     2.7876698   -0.1976002   -0.0688848 
O    -0.7903050   -7.0305999   -1.4577037 
H    -0.6306246   -7.8025549   -0.8198648 
O     2.9566140    0.2193624    1.2483384 
N     3.5225254   -2.5404429    0.0378878 
H     2.3071401   -1.7040683   -1.4806366 
H     3.6103393   -2.5342999    1.0827209 
H     3.3076189   -3.5202784   -0.2608139 
N     2.8445275    0.7741992   -1.1234384 
C     4.2127361    1.3333036   -1.2373655 
H     2.1985593    1.5339906   -0.8003883 
C     4.2095881    2.6064292   -2.0693074 
O     4.2389180    3.8446845   -1.4473214 
O     4.1251719    2.5522818   -3.4545459 
H     3.1516215    2.4392080   -3.6959458 
C     5.1554276    0.2730565   -1.8579440 
H     4.5987444    1.6417974   -0.2319784 
C     6.5921440    0.7447153   -1.8641867 
H     4.8226761    0.0353132   -2.8932105 
H     5.0973510   -0.6826286   -1.2951167 
C     7.4709772    0.6430896   -0.8557925 
C     7.3229626    0.0865228    0.3739650 
C     8.3805314    0.1273650    1.2340586 
C     9.5544159    0.7204562    0.8584312 
C     9.6771111    1.2783742   -0.3797491 
C     8.6178587    1.2221928   -1.2141251 
H     6.3875667   -0.3762874    0.6787317 
H     8.2867236   -0.3093138    2.2255424 
H    10.3908962    0.7528029    1.5520514 
H    10.5978302    1.7607701   -0.6898181 
N     8.5282547    1.7583474   -2.5270959 
C     7.1778003    1.4152040   -2.8721389 
H     9.2542852    2.2602090   -3.0884228 
H     6.6784577    1.7051020   -3.7972483 
