48
Energy =
C    -0.0317846    0.7746279   -5.1152907 
C     0.4444158    0.1185465   -4.0268798 
C    -1.3697897    0.8249692   -5.3519964 
C    -2.2225555    0.2206362   -4.4941908 
C    -1.7523549   -0.4319766   -3.4011467 
C    -0.4134078   -0.4885283   -3.1607502 
H     1.5160276    0.0971208   -3.8485130 
H    -3.2872355    0.2706027   -4.6924820 
H    -2.4558427   -0.9038716   -2.7211546 
H     0.6604043    1.2633041   -5.7925814 
C     0.1137224   -1.2036090   -1.9330000 
C     0.4230298   -0.2495227   -0.7498447 
H     1.0273266   -1.7751524   -2.2078918 
H    -0.6178580   -1.9722550   -1.5980799 
C     1.5517295    0.7274684   -1.0695015 
O    -1.8937944    1.4885253   -6.4668438 
H    -1.1910945    1.9439822   -7.0389158 
O     1.2280015    1.9886092   -1.5559505 
N    -0.7971754    0.4399389   -0.2969288 
H     0.7995642   -0.8640439    0.1001069 
H    -1.1244425    1.1076392   -1.0373715 
H    -1.5654697   -0.2532921   -0.1434903 
N     2.9258712    0.2846905   -0.9109639 
C     4.0706071    1.1282030   -1.3926167 
H     2.9686718   -0.6712183   -1.3313262 
C     3.7468671    2.5287170   -1.9340185 
O     3.5976015    2.7261581   -3.3048612 
O     3.6530396    3.6316238   -1.0825355 
H     3.5770986    3.3498818   -0.1160565 
C     4.9451255    0.3427046   -2.4131330 
H     4.7171433    1.3389521   -0.5142417 
C     5.5454747   -0.9559043   -1.8943513 
H     5.7870685    0.9864065   -2.7556658 
H     4.3167618    0.1225585   -3.3048603 
C     6.0555123   -1.9349405   -2.6600120 
C     6.1398617   -2.0241555   -4.0130369 
C     6.7140373   -3.1362939   -4.5553769 
C     7.1930582   -4.1300758   -3.7473966 
C     7.1022544   -4.0167617   -2.3919184 
C     6.5280044   -2.9079705   -1.8798845 
H     5.7669515   -1.2333518   -4.6572215 
H     6.7939661   -3.2316086   -5.6357919 
H     7.6515591   -5.0124212   -4.1870759 
H     7.4821323   -4.7930425   -1.7363693 
N     6.3492678   -2.5902806   -0.5085507 
C     5.7167796   -1.3075889   -0.6031016 
H     6.6073344   -3.1438454    0.3403121 
H     5.4221406   -0.7179516    0.2602720 
