48
Energy =
C    -2.8706839   -1.2637907   -1.7365791 
C    -1.7043972   -1.9092462   -1.4828684 
C    -3.0780087   -0.0107467   -1.2506421 
C    -2.1131978    0.5896219   -0.5170544 
C    -0.9459744   -0.0522912   -0.2581667 
C    -0.7370536   -1.3104236   -0.7345639 
H    -1.5480235   -2.9064343   -1.8850197 
H    -2.2846965    1.5938550   -0.1450617 
H    -0.1779583    0.4541615    0.3206288 
H    -3.6356245   -1.7506388   -2.3314846 
C     0.5740079   -2.0202381   -0.4726656 
C     1.5688930   -1.8439860   -1.6417417 
H     0.3784966   -3.1044616   -0.3196069 
H     1.0251943   -1.6583109    0.4766160 
C     1.9398277   -0.3795491   -1.8825524 
O    -4.2711744    0.6794626   -1.4892734 
H    -4.9343790    0.1722032   -2.0644587 
O     1.1711598    0.3656778   -2.7693523 
N     2.7557089   -2.6898280   -1.4120371 
H     1.0691154   -2.1711391   -2.5852316 
H     3.1284623   -2.5424863   -0.4430866 
H     2.4764648   -3.6983715   -1.4749150 
N     2.8244815    0.3314847   -0.9999004 
C     4.2327023    0.5024832   -1.4541396 
H     2.7848299   -0.1089202   -0.0539939 
C     4.6287588    1.9716594   -1.4693489 
O     5.9592271    2.3043508   -1.2538035 
O     3.7360206    2.9881184   -1.8090318 
H     2.8056032    2.6258982   -1.9782615 
C     4.6351626   -0.2293418   -2.7761605 
H     4.8923958    0.0667410   -0.6672053 
C     4.0005252    0.2990823   -4.0574861 
H     4.4431058   -1.3137588   -2.6538215 
H     5.7386360   -0.1505925   -2.8985043 
C     3.2748754   -0.4049613   -4.9497225 
C     2.8928046   -1.7113573   -4.9377454 
C     2.1596604   -2.1850986   -5.9850659 
C     1.8284374   -1.3628638   -7.0245514 
C     2.2319154   -0.0618863   -7.0253409 
C     2.9522123    0.3861330   -5.9760061 
H     3.1530294   -2.3798157   -4.1253032 
H     1.8385521   -3.2237355   -5.9941648 
H     1.2445809   -1.7485524   -7.8562040 
H     1.9851234    0.6018065   -7.8468028 
N     3.4920843    1.6866787   -5.8074663 
C     4.1692657    1.5426726   -4.5527304 
H     3.4294952    2.5178401   -6.4390584 
H     4.7721052    2.3278504   -4.0997270 
