48
Energy =
C    -2.5936984    4.6870179   -3.8007300 
C    -1.3712928    4.2399568   -4.1939178 
C    -3.1079736    4.3101749   -2.5964714 
C    -2.3958985    3.4860729   -1.7940413 
C    -1.1786743    3.0436939   -2.1915665 
C    -0.6495016    3.4216178   -3.3810110 
H    -0.9794119    4.5412513   -5.1617059 
H    -2.8092301    3.1856445   -0.8376967 
H    -0.4764379    2.3291673   -1.5701669 
H    -3.1601145    5.3428263   -4.4530350 
C     0.7058292    2.8700658   -3.8131397 
C     1.7414648    2.7667147   -2.6437919 
H     1.1185312    3.5284088   -4.6085014 
H     0.5571063    1.8664998   -4.2688836 
C     1.3934777    1.6576859   -1.6412413 
O    -4.3620386    4.7528690   -2.1637952 
H    -4.8302207    5.3671310   -2.8207435 
O     0.1677201    1.6604743   -0.9758954 
N     3.1135355    2.6005382   -3.1726023 
H     1.7091681    3.7131327   -2.0519312 
H     3.1869539    1.6573460   -3.6255876 
H     3.2468884    3.2435709   -3.9906366 
N     2.1672080    0.4605257   -1.6006279 
C     3.5632017    0.5332856   -1.1244479 
H     1.7430709   -0.3988660   -2.0117827 
C     4.2098888    1.9375157   -1.1958272 
O     4.0654335    2.8328419   -2.2931651 
O     5.0755745    2.3469645   -0.1765863 
H     5.1606080    1.6706351    0.5657754 
C     4.4339890   -0.4960259   -1.8828626 
H     3.5441016    0.2521207   -0.0498826 
C     4.0532118   -1.9227813   -1.5534132 
H     5.5085805   -0.3503921   -1.6308482 
H     4.3471972   -0.3242116   -2.9780535 
C     4.3519626   -2.5956442   -0.4309591 
C     5.0652288   -2.2029812    0.6557403 
C     5.2260969   -3.0896234    1.6799174 
C     4.6791875   -4.3408888    1.6025137 
C     3.9689782   -4.7134902    0.4998250 
C     3.8238887   -3.8184746   -0.4997684 
H     5.5026492   -1.2113569    0.7163423 
H     5.7923511   -2.8006926    2.5622743 
H     4.8111528   -5.0420492    2.4228626 
H     3.5291372   -5.7019931    0.4219924 
N     3.1289190   -4.0033266   -1.7249030 
C     3.3264883   -2.7278480   -2.3483994 
H     2.6146815   -4.8443849   -2.0741105 
H     2.9352213   -2.4551327   -3.3258202 
