48
Energy =
C     1.3083187    5.2897860   -1.0023395 
C     1.3373478    3.9586514   -1.2636697 
C     0.6141763    5.7614888    0.0675418 
C    -0.0449563    4.8957814    0.8700420 
C    -0.0176867    3.5637986    0.6148775 
C     0.6738254    3.0853972   -0.4564728 
H     1.9000479    3.6002985   -2.1205143 
H    -0.5921461    5.2835942    1.7215246 
H    -0.5493916    2.8858501    1.2766722 
H     1.8439740    5.9751112   -1.6503110 
C     0.7202725    1.5962103   -0.7333961 
C     1.9835739    0.9065238   -0.1583609 
H     0.6605904    1.4214948   -1.8293544 
H    -0.1842968    1.1032778   -0.3132620 
C     3.2672856    1.3678882   -0.8408007 
O     0.5606232    7.1279771    0.3640251 
H     1.0977314    7.7079598   -0.2717954 
O     4.2694560    2.0089992   -0.1202094 
N     2.0425782    1.0559666    1.3057956 
H     1.9150029   -0.1780895   -0.3770170 
H     2.2589569    2.0519869    1.5518646 
H     1.1173849    0.8190374    1.7321980 
N     3.5029823    1.0789806   -2.2277953 
C     4.6315444    0.1827466   -2.5456593 
H     2.8295997    1.4134603   -2.9521563 
C     5.7001433    0.9227386   -3.3483852 
O     6.1372083    0.4101098   -4.5651741 
O     6.2974749    2.0869703   -2.8708312 
H     5.8874435    2.3851875   -1.9958728 
C     4.1040923   -1.0561527   -3.3072372 
H     5.1571193   -0.1526424   -1.6193189 
C     3.0723101   -1.8247289   -2.5136864 
H     4.9538111   -1.7372944   -3.5428156 
H     3.6909661   -0.7435418   -4.2907962 
C     1.7363908   -1.7682611   -2.6502494 
C     0.9743041   -1.0417314   -3.5088834 
C    -0.3825609   -1.1418009   -3.4153558 
C    -0.9523131   -1.9547807   -2.4754246 
C    -0.1685518   -2.6742297   -1.6234587 
C     1.1712060   -2.5627718   -1.7387478 
H     1.4192916   -0.3867945   -4.2509707 
H    -1.0149401   -0.5696734   -4.0905869 
H    -2.0351615   -2.0271027   -2.4063010 
H    -0.6048196   -3.3193262   -0.8680399 
N     2.1562563   -3.1940006   -0.9333721 
C     3.3596453   -2.6592278   -1.4993805 
H     2.0350672   -3.8646763   -0.1393309 
H     4.3617601   -2.8891948   -1.1426615 
