48
Energy =
C    -2.8015282   -1.0824387   -4.2884871 
C    -1.6435510   -1.7807281   -4.3971228 
C    -2.9419321   -0.1402585   -3.3212106 
C    -1.9222601    0.0968974   -2.4688454 
C    -0.7619523   -0.5986076   -2.5698004 
C    -0.6042287   -1.5449767   -3.5454128 
H    -1.5540017   -2.5327676   -5.1776097 
H    -2.0469892    0.8535855   -1.7020612 
H     0.0212946   -0.3695205   -1.8608256 
H    -3.6156644   -1.2813196   -4.9773571 
C     0.6584026   -2.3898402   -3.7198533 
C     1.9530717   -1.9632274   -2.9759717 
H     0.9017674   -2.4036487   -4.8071271 
H     0.4169888   -3.4389254   -3.4420516 
C     2.3124929   -0.4956454   -3.1627564 
O    -4.1231291    0.5941815   -3.1781349 
H    -4.8338792    0.3720210   -3.8668098 
O     2.0832586    0.1187186   -4.3898537 
N     1.9102850   -2.3680130   -1.5565649 
H     2.7978575   -2.5037788   -3.4621044 
H     0.9466971   -2.2827082   -1.1600667 
H     2.1566044   -3.3835881   -1.4855357 
N     3.0651462    0.2021200   -2.1582271 
C     4.4844331    0.5645220   -2.3776110 
H     2.5708206    0.4623146   -1.2762480 
C     4.6484869    2.0656271   -2.6038233 
O     5.3351308    2.8190283   -1.6591166 
O     4.1595025    2.7089451   -3.7405195 
H     3.5879669    2.0878629   -4.2946307 
C     5.1600061   -0.2866846   -3.4840433 
H     5.0267363    0.3525656   -1.4283392 
C     6.6463240   -0.0160111   -3.5600187 
H     4.7020388   -0.0741612   -4.4755206 
H     4.9969565   -1.3659635   -3.2792490 
C     7.6089728   -0.5940165   -2.8249601 
C     7.5178633   -1.5615087   -1.8765092 
C     8.6624210   -1.9729689   -1.2589708 
C     9.8659847   -1.4149279   -1.5918188 
C     9.9319393   -0.4408027   -2.5436524 
C     8.7863472   -0.0533283   -3.1426329 
H     6.5618927   -1.9994455   -1.6055487 
H     8.6167166   -2.7454104   -0.4951440 
H    10.7732474   -1.7451610   -1.0921878 
H    10.8766928    0.0182567   -2.8141097 
N     8.6334163    0.9504328   -4.1363702 
C     7.2139951    0.9176649   -4.3436868 
H     9.3601802    1.5451159   -4.5967597 
H     6.6672734    1.5892967   -5.0059362 
