48
Energy =
C    -2.4213422    0.8786424   -5.1810487 
C    -2.1539189    0.8592696   -3.8509198 
C    -1.6615474    1.6314550   -6.0203271 
C    -0.6366646    2.3593681   -5.5217358 
C    -0.3675790    2.3469375   -4.1920415 
C    -1.1289649    1.6002418   -3.3456180 
H    -2.7620070    0.2437637   -3.1944526 
H    -0.0277669    2.9475366   -6.1998891 
H     0.4706350    2.9273935   -3.8160455 
H    -3.2405870    0.2871439   -5.5739648 
C    -0.8083722    1.5527636   -1.8655595 
C     0.1307989    0.3732864   -1.5255305 
H    -1.7532034    1.4523490   -1.2877823 
H    -0.3507786    2.5145634   -1.5450611 
C     1.4988386    0.5214449   -2.1786498 
O    -1.9130414    1.6727546   -7.3958284 
H    -2.6923262    1.0957928   -7.6910548 
O     1.7216030   -0.1570462   -3.3659475 
N     0.2359211    0.2155348   -0.0635920 
H    -0.2980986   -0.5633397   -1.9566951 
H     0.4105348    1.1382181    0.3993901 
H    -0.6749902   -0.1425038    0.3103056 
N     2.4244166    1.5238127   -1.7143528 
C     3.8369329    1.6424320   -2.1503581 
H     2.0815943    2.1686780   -0.9703406 
C     4.0636259    2.8885019   -2.9923712 
O     3.0332349    3.4243004   -3.7520214 
O     5.3281542    3.4732941   -3.0879447 
H     6.0010743    3.0388711   -2.4735573 
C     4.4883465    0.3402601   -2.7178563 
H     4.4053482    1.8478979   -1.2164122 
C     4.3394426    0.0584188   -4.2176945 
H     4.1038830   -0.5080153   -2.1171691 
H     5.5800022    0.3761545   -2.5115679 
C     4.0061426   -1.1253053   -4.7785557 
C     3.6449209   -2.3030985   -4.1983528 
C     3.3720808   -3.3704802   -5.0020834 
C     3.4679752   -3.2553534   -6.3595280 
C     3.8385228   -2.0711059   -6.9219764 
C     4.0997409   -1.0286459   -6.1074280 
H     3.5502606   -2.4068556   -3.1236226 
H     3.0686878   -4.3163009   -4.5593670 
H     3.2440356   -4.1114518   -6.9920449 
H     3.9220949   -1.9575970   -7.9972021 
N     4.5363753    0.2612635   -6.4981125 
C     4.6907169    0.8950217   -5.2208478 
H     4.7262529    0.6414982   -7.4545704 
H     5.0974128    1.8962475   -5.1043908 
