48
 energy: -9.065729512611 gnorm: 0.000315440847 xtb: 6.6.0 (2ccbbd7)
C            5.74486117352931       -1.93205396464567        2.45446489543800
C            4.73149517985484       -1.04857912842077        2.74437312993273
C            5.95883058020336       -2.36441183102440        1.14540596550063
C            5.11488974203590       -1.88053837906868        0.14734999112974
C            4.10323412904015       -1.00268144441426        0.44909405500687
C            3.89749106823498       -0.56036391983481        1.74734145291587
H            4.57458180051066       -0.72898238123185        3.76041072394159
H            5.27930282382353       -2.20856810559506       -0.86311588258721
H            3.46708850980438       -0.63080126578661       -0.33241743300041
H            6.38334180906346       -2.30047885512821        3.23734644984642
C            2.77694559599818        0.37944700218537        2.09551102085229
C            2.51737479491117        1.50146325137710        1.07625610546786
H            2.98324392665460        0.82815633441389        3.07224511833381
H            1.85278024076464       -0.19341665731390        2.22057879294840
C            1.74470399114995        0.97419147200863       -0.11189757401828
O            6.97054624591578       -3.24794519312491        0.81931124998528
H            7.45882449353532       -3.51172501032101        1.62916215152912
O            0.59365292206234        0.64178422074455        0.08653234843799
N            1.74611129054553        2.59221894390267        1.65362583766663
H            3.47791809382826        1.92171827100626        0.75024076538399
H            0.78955626160148        2.28142638166159        1.76606882363811
H            2.10442575248929        2.86310908233173        2.56140672974091
N            2.30879039636139        0.87510767614597       -1.36873569888947
C            3.53507453658476        1.56324853399295       -1.79344286069219
H            1.70349911380214        0.61421115020849       -2.14302796320214
C            3.27693399717037        3.02960661442973       -2.00135471852197
O            4.32210814177668        3.86810660415414       -2.25114036882807
O            1.97744043138558        3.48520820415801       -1.93733839213339
H            1.39777558821065        2.81196763347454       -1.51448916038963
C            4.12372964813498        0.88333123785960       -3.05482987924502
H            4.27013816074982        1.45834865254831       -0.98552941911910
C            5.58967244629492        0.62111172532495       -2.94972999112602
H            3.91872175075831        1.50053702663140       -3.93561590752181
H            3.60760250079362       -0.06691113561393       -3.22756439199828
C            6.57472404954054        1.56888485944390       -2.55674942660652
C            6.48433777625980        2.91437172680501       -2.19244601782899
C            7.61990881048878        3.58326893396417       -1.84794781713694
C            8.86764750477414        2.93540942086313       -1.85314583241875
C            8.98085108639757        1.61592476911503       -2.20189797520407
C            7.82121463193957        0.91514047917750       -2.55968451768913
H            5.35780575494616        3.41295697019963       -2.21316465606542
H            7.55677982249261        4.62226745761424       -1.57091619018815
H            9.74932976548554        3.49010839549833       -1.57811133015018
H            9.93125539696690        1.11325297006843       -2.20798223866526
N            7.59318638831290       -0.39424006834149       -2.94748779651805
C            6.24866500330758       -0.56167777592077       -3.18113500310696
H            8.31555412027709       -1.11233807155834       -3.02566914300686
H            5.78768326488329       -1.48515106772509       -3.49195760215682
