48
Energy =
C     6.0424442   -1.0605198   -5.8350885 
C     4.9392985   -1.5249887   -5.1956460 
C     6.1747783    0.2675913   -6.0904675 
C     5.1968013    1.1204551   -5.7127890 
C     4.0885364    0.6579914   -5.0761602 
C     3.9618176   -0.6639381   -4.7862177 
H     4.8463051   -2.5910083   -5.0060870 
H     5.3182505    2.1771473   -5.9314746 
H     3.3069240    1.3490318   -4.7803829 
H     6.8163769   -1.7550162   -6.1435523 
C     2.6982162   -1.1901241   -4.1125315 
C     2.4060676   -1.3715126   -2.5098103 
H     2.5600452   -2.1757272   -4.6181791 
H     1.8412955   -0.6308184   -4.5541559 
C     1.5022356   -0.1582135   -2.0891703 
O     7.3003163    0.7821486   -6.7412171 
H     7.9830391    0.0787035   -7.0017250 
O     0.2209707   -0.0198508   -2.6239930 
N     1.4882795   -2.5777150   -2.6797202 
H     3.6384433   -1.2453653   -1.1408371 
H     0.5697739   -2.3246510   -3.1204065 
H     1.2750537   -3.3251437   -1.9863994 
N     1.8727366    0.7080383   -0.9903632 
C     2.7202503    1.8755248   -1.3887849 
H     0.9684832    1.0708626   -0.6065198 
C     2.0460823    2.8312506   -2.3859877 
O     1.5881438    2.3667895   -3.6119450 
O     1.9382667    4.1994269   -2.1282198 
H     2.3335944    4.4634282   -1.2390775 
C     4.1644397    1.4692355   -1.8211590 
H     2.8562499    2.4728562   -0.4612520 
C     4.2105369    0.0130534   -2.0949046 
H     4.8738665    1.6704403   -0.9877321 
H     4.5147380    2.0403338   -2.7056539 
C     2.6117125   -2.3495858   -0.4023661 
C     1.6881290   -2.6749558    0.5001584 
C     1.7475949   -3.9550884    0.9647180 
C     2.7409171   -4.8302570    0.5749559 
C     3.7422143   -4.4690650   -0.2928851 
C     3.7501446   -3.2325130   -0.8223171 
H     0.9484500   -1.9586570    0.8439217 
H     1.0038564   -4.2865908    1.6851900 
H     2.7487376   -5.8336402    0.9933344 
H     4.5383165   -5.1630465   -0.5396933 
N     4.9695532   -2.6215718   -1.7582178 
C     5.2835695   -1.0694259   -2.2641514 
H     5.0163880   -3.2303189   -2.6064906 
H     6.2866546   -0.7830797   -2.5701800 
