48
Energy =
C     0.8132451   -0.1813698    0.6760464 
C     1.1440487    1.0610560    1.1094479 
C    -0.2161046   -0.3491285   -0.1964402 
C    -0.9091699    0.7290041   -0.6282436 
C    -0.5831624    1.9738088   -0.1974897 
C     0.4459167    2.1469660    0.6768046 
H     1.9748663    1.1805119    1.7999726 
H    -1.7251226    0.5827299   -1.3280220 
H    -1.1427960    2.8295828   -0.5684455 
H     1.3763458   -1.0399536    1.0260701 
C     0.8482279    3.5356125    1.1224675 
C     2.0370159    4.0737282    0.2924840 
H     1.1221210    3.5020921    2.2000311 
H    -0.0146933    4.2364992    1.0423045 
C     1.6583918    4.2800801   -1.1699746 
O    -0.5786874   -1.6149537   -0.6663479 
H    -0.0168385   -2.3714373   -0.2915026 
O     0.7632281    5.2925787   -1.4958879 
N     2.5359970    5.3254540    0.8828017 
H     2.8635098    3.3303379    0.3172263 
H     1.7773942    6.0508520    0.8673038 
H     2.8030601    5.1693354    1.8827510 
N     1.8744146    3.2374455   -2.1297939 
C     3.2593416    2.9122103   -2.5104860 
H     1.0517462    2.6956135   -2.4797225 
C     3.4576233    3.0696662   -4.0190443 
O     2.5241846    2.5229628   -4.8935510 
O     4.6028198    3.6649231   -4.5523823 
H     5.2464940    3.9696838   -3.8379515 
C     3.5526409    1.4696098   -2.0535037 
H     3.9688519    3.6066006   -2.0035723 
C     5.0209999    1.1298960   -2.1784592 
H     2.9303453    0.7500973   -2.6321816 
H     3.2479950    1.3446991   -0.9927324 
C     5.6374256    0.5595473   -3.2269140 
C     5.1287876    0.1205374   -4.4072965 
C     5.9849913   -0.4196304   -5.3210694 
C     7.3210875   -0.5128719   -5.0457448 
C     7.8099022   -0.0641245   -3.8550090 
C     6.9429827    0.4663764   -2.9669949 
H     4.0703450    0.2011462   -4.6366436 
H     5.6025858   -0.7706970   -6.2766858 
H     7.9968517   -0.9407015   -5.7819725 
H     8.8678556   -0.1251978   -3.6238363 
N     7.2463049    0.9997670   -1.6854262 
C     5.9470593    1.4130647   -1.2456898 
H     8.1692314    1.0690190   -1.1986492 
H     5.7484934    1.9011293   -0.2949467 
