48
Energy =
C    -4.4025288    3.5963904   -2.0577378 
C    -3.2676071    3.0414213   -2.5536007 
C    -5.1332791    2.9361309   -1.1198471 
C    -4.7215286    1.7240947   -0.6835537 
C    -3.5872874    1.1646206   -1.1754232 
C    -2.8548622    1.8193814   -2.1175395 
H    -2.6911750    3.5842300   -3.2982378 
H    -5.3116383    1.2083814    0.0658888 
H    -3.2714473    0.1910776   -0.8098476 
H    -4.7230552    4.5701511   -2.4119413 
C    -1.5818105    1.2032365   -2.6535744 
C    -0.3880560    1.3774953   -1.6817496 
H    -1.3202161    1.6302005   -3.6471725 
H    -1.7592298    0.1191802   -2.8371265 
C     0.8303686    0.5642057   -2.1054512 
O    -6.3073216    3.4798666   -0.5881626 
H    -6.5466421    4.3900056   -0.9659151 
O     0.7607964   -0.1866641   -3.2740331 
N    -0.0361079    2.8020973   -1.5491859 
H    -0.6724713    0.9726608   -0.6820159 
H     0.0942719    3.2334648   -2.4953712 
H    -0.8137537    3.3178507   -1.0725738 
N     1.9527546    0.4845429   -1.1942798 
C     3.2196711   -0.2566903   -1.4996755 
H     2.1586395    1.4701248   -0.9031501 
C     4.4754650    0.6224869   -1.4406961 
O     4.4034985    1.9692770   -1.7750353 
O     5.7215977    0.0892238   -1.1103038 
H     5.6728387   -0.8900021   -0.8734392 
C     3.2350486   -1.1925941   -2.7404711 
H     3.3418667   -0.9448314   -0.6350002 
C     3.4561260   -0.5287616   -4.0983099 
H     2.3261863   -1.8301786   -2.7602055 
H     4.0739568   -1.9068151   -2.5905819 
C     3.8144787   -1.1732201   -5.2223975 
C     4.0762955   -2.4920886   -5.4207826 
C     4.4204096   -2.9045802   -6.6745639 
C     4.4939261   -2.0050139   -7.7014000 
C     4.2218276   -0.6877691   -7.4814122 
C     3.8854184   -0.3039229   -6.2323424 
H     4.0125095   -3.2113159   -4.6098797 
H     4.6353135   -3.9545980   -6.8594291 
H     4.7676700   -2.3413145   -8.6987031 
H     4.2710477    0.0384388   -8.2862274 
N     3.5548605    1.0059712   -5.8007522 
C     3.2765912    0.7723888   -4.4114692 
H     3.5167140    1.8983881   -6.3460862 
H     2.9289183    1.5411173   -3.7255403 
