48
 energy: -9.089334946177 gnorm: 0.000555509513 xtb: 6.6.0 (2ccbbd7)
C           -1.83725162151424        6.01448720112369       -0.81671725192439
C           -1.80503664076529        4.66285996888664       -1.06766485699052
C           -0.65898151302142        6.76075618578742       -0.79385230278925
C            0.54410294235501        6.09721455176900       -1.02930231419906
C            0.56571956540985        4.74637288284963       -1.27862224640774
C           -0.60545882963330        4.00359509530724       -1.30265473444327
H           -2.72405106591881        4.10245768931125       -1.08882572382697
H            1.45623329420546        6.66693881982958       -1.00629539406138
H            1.51036524067623        4.25243094627916       -1.42957939302160
H           -2.77421825791670        6.51088487110982       -0.63769096272406
C           -0.60251407042171        2.53429718760642       -1.61364935548109
C            0.31531892958020        1.67830641577647       -0.71906980549479
H           -0.31924415354838        2.39619224409587       -2.66209248197995
H           -1.62846778029127        2.15964607084645       -1.53323441946924
C            1.74281444949587        1.82723237418667       -1.11655109810041
O           -0.65741169655144        8.12060754026230       -0.54593436600715
H           -1.57629877975165        8.43669401035461       -0.40450701895916
O            2.54688131562859        2.78323520175889       -0.56539097604004
N            0.14565691578531        1.98660983429544        0.69564129390461
H            0.05841947698139        0.61416909978779       -0.85063091253894
H            0.61432564471300        2.86035466875939        0.89509335880211
H           -0.83453451740099        2.10082546354388        0.92384082650674
N            2.33347951278688        1.03312761506426       -2.13070354906738
C            3.77044446700348        1.23412519306286       -2.33411017000304
H            1.86209131734820        1.05794779022239       -3.03189079713817
C            4.05725360305100        2.71476179306817       -2.42683571768586
O            3.34252266464088        3.50753564566378       -1.61520149409942
O            4.99824399015174        3.23258112418465       -3.29219201143235
H            5.60553409678305        2.52904670961864       -3.60194599951971
C            4.25934138305408        0.38530893163535       -3.52197596771357
H            4.25649690625157        0.87799491966787       -1.41585771237091
C            5.73877736900875        0.37697272359208       -3.71793612843493
H            3.77626063199457        0.74928499225073       -4.43357003141162
H            3.91245907185101       -0.64496862143843       -3.39295312672161
C            6.73261647761919        0.05979702045476       -2.74249006693033
C            6.67067038393313       -0.46942221409578       -1.44098901109367
C            7.83594434547674       -0.64634646593070       -0.74717621558625
C            9.07718969190094       -0.31120404255985       -1.31244221279480
C            9.16316594378989        0.20002297424027       -2.57842677070507
C            7.98121623418382        0.38731716898170       -3.30612484342975
H            5.72190155857358       -0.74190778849811       -1.01478471893007
H            7.80372688509095       -1.05071181435568        0.25100332504431
H            9.97606916361553       -0.46172381801267       -0.73763705905870
H           10.10877448022280        0.45862282681294       -3.02018095188572
N            7.74744542625453        0.87349157044634       -4.58043218482874
C            6.40007747003302        0.83188862826751       -4.83424811926517
H            8.47639309109186        1.18001776643377       -5.22784877232824
H            5.93486942613480        1.17029833722226       -5.74630322556603
