48
Energy =
C     3.6422002    1.2675895    2.1273067 
C     2.5233390    1.8270396    1.6003587 
C     3.6787167   -0.0649136    2.3944897 
C     2.5989730   -0.8311752    2.1202498 
C     1.4798993   -0.2782429    1.5882494 
C     1.4324410    1.0574526    1.3294905 
H     2.5053260    2.8970663    1.4030747 
H     2.6409143   -1.8928574    2.3367243 
H     0.6220047   -0.9110845    1.3776284 
H     4.5045198    1.8902597    2.3413711 
C     0.1765072    1.6805346    0.7520363 
C     0.1988581    1.8059859   -0.7918467 
H     0.0275824    2.6898427    1.2000169 
H    -0.7158007    1.0912241    1.0577426 
C     1.3079577    2.7270661   -1.2788994 
O     4.8104164   -0.6710819    2.9493361 
H     5.5777409   -0.0289080    3.1170403 
O     1.4494923    3.9873209   -0.7087764 
N     0.2478408    0.4745882   -1.4242888 
H    -0.7412321    2.3128846   -1.1110806 
H     1.1623292    0.0110560   -1.2095128 
H    -0.5139124   -0.1337615   -1.0423458 
N     2.0723884    2.4095724   -2.4460892 
C     3.5214079    2.2252518   -2.2664382 
H     1.5766008    2.2822324   -3.3572261 
C     4.2886887    3.4842629   -2.6739512 
O     3.9792657    4.1196478   -3.8723046 
O     5.3798182    3.9496197   -1.9351390 
H     5.5589090    3.3811540   -1.1211157 
C     3.9568281    1.0057061   -3.0987166 
H     3.7453562    2.0151979   -1.1947721 
C     5.3964684    0.6310125   -2.8270258 
H     3.8173343    1.2197487   -4.1831549 
H     3.2954748    0.1423516   -2.8670921 
C     5.8483396   -0.1587187   -1.8408517 
C     5.1631452   -0.8318930   -0.8814294 
C     5.8707195   -1.5731884    0.0183797 
C     7.2354575   -1.6217494   -0.0461841 
C     7.9023581   -0.9309721   -1.0137303 
C     7.1801556   -0.2105294   -1.8970686 
H     4.0801205   -0.7856946   -0.8191408 
H     5.3480933   -2.1231034    0.7977006 
H     7.7899495   -2.2102269    0.6804281 
H     8.9849441   -0.9543297   -1.0756539 
N     7.6750221    0.5870560   -2.9631195 
C     6.4541405    1.1034925   -3.5102970 
H     8.6624912    0.7493313   -3.2669475 
H     6.3981581    1.8111792   -4.3366391 
