48
Energy =
C     0.1127627    1.2446317   -4.6320341 
C    -0.4392019    0.9447229   -3.4322608 
C     1.4552633    1.1650533   -4.8030337 
C     2.2388389    0.7989655   -3.7780526 
C     1.7182144    0.5294129   -2.5375352 
C     0.3443238    0.5735272   -2.3827769 
H    -1.5180745    1.0037241   -3.3165286 
H     3.2938397    0.7385749   -3.9786217 
H     2.5224331    0.0110474   -1.6038776 
H    -0.5252428    1.5387606   -5.4577140 
C    -0.3251934    0.2582400   -1.0528207 
C     0.6491197    0.2058742    0.1432583 
H    -0.8643544   -0.7095042   -1.1378116 
H    -1.0807545    1.0511840   -0.8517886 
C     1.7058713    1.2887496    0.0050426 
O     2.0685288    1.4396297   -6.0268682 
H     1.4205301    1.7331013   -6.7504809 
O     1.5228679    2.5282320    0.6059222 
N    -0.0823846    0.2949045    1.4157494 
H     1.1916176   -0.7655902    0.1192799 
H    -0.5235172    1.2433307    1.4997436 
H    -0.8577954   -0.4079648    1.4282309 
N     2.6709164    1.1704172   -1.0809260 
C     4.0666967    1.0389850   -0.5357560 
H     2.7190926    2.1599074   -1.5120208 
C     4.5871965    2.3225649    0.1437117 
O     5.2447672    3.2867636   -0.6111009 
O     4.4719674    2.5213769    1.5187011 
H     3.7385732    1.9579121    1.9224091 
C     5.0703233    0.5920297   -1.6405160 
H     4.0971595    0.2841021    0.2804907 
C     4.9304861   -0.8464730   -2.1176958 
H     6.1167090    0.7135654   -1.2717324 
H     4.9661172    1.2906050   -2.4955065 
C     5.2490188   -1.3012923   -3.3430703 
C     5.7244146   -0.6305239   -4.4257292 
C     5.9668667   -1.3320502   -5.5696875 
C     5.7441015   -2.6800729   -5.6135489 
C     5.2811780   -3.3354431   -4.5119208 
C     5.0437952   -2.6182862   -3.3936173 
H     5.9174636    0.4379404   -4.3951130 
H     6.3425279   -0.8162828   -6.4507915 
H     5.9422100   -3.2324312   -6.5289486 
H     5.1081896   -4.4062273   -4.5270768 
N     4.5854970   -3.1083906   -2.1438108 
C     4.5585615   -1.9047555   -1.3677984 
H     4.3359974   -4.0864414   -1.8694483 
H     4.2966459   -1.8796705   -0.3145618 
