48
Energy =
C     3.5570682   -2.9225785   -8.3050093 
C     3.1850735   -1.7305055   -7.7670097 
C     3.8548316   -3.9778107   -7.4958458 
C     3.7809345   -3.8315484   -6.1529706 
C     3.4106516   -2.6407859   -5.6232991 
C     3.0969378   -1.5892407   -6.4167308 
H     2.9641142   -0.8937574   -8.4241567 
H     4.0206994   -4.6716075   -5.5111589 
H     3.3040053   -2.4129486   -4.4717979 
H     3.6207511   -3.0281257   -9.3824571 
C     2.7357460   -0.2525085   -5.7826517 
C     1.8560535   -0.3715984   -4.4979684 
H     2.1959535    0.3704276   -6.5292352 
H     3.6786092    0.2869414   -5.5343323 
C     2.6249863   -0.9513751   -3.2840049 
O     4.2387707   -5.2172317   -8.0184409 
H     4.2745811   -5.2417973   -9.0312765 
O     3.2105136   -2.2148060   -3.3924170 
N     1.2334544    0.9326009   -4.2066170 
H     1.0449396   -1.1135397   -4.6911314 
H     1.9428015    1.7004721   -4.3025018 
H     0.4986412    1.1299838   -4.9260363 
N     2.5006230   -0.4077127   -1.9574285 
C     3.6635143    0.4269469   -1.5681288 
H     1.6059613    0.1268154   -1.8886927 
C     3.7584718    1.7315831   -2.3606663 
O     4.5776300    1.8231670   -3.4807030 
O     2.9866561    2.8424647   -2.0218591 
H     2.3759723    2.6559387   -1.2412277 
C     4.9726239   -0.3993022   -1.6125345 
H     3.5108067    0.7251368   -0.5078967 
C     6.0980666    0.2942377   -0.8808443 
H     5.2815439   -0.5773810   -2.6663566 
H     4.7939178   -1.4062409   -1.1736299 
C     6.3502930    0.2485114    0.4354668 
C     5.7100801   -0.4315193    1.4209194 
C     6.1657892   -0.2993595    2.6997684 
C     7.2393142    0.5036127    2.9713003 
C     7.8635385    1.1800318    1.9652485 
C     7.3959426    1.0306661    0.7081959 
H     4.8558543   -1.0678714    1.2069306 
H     5.6727036   -0.8352514    3.5074553 
H     7.5958635    0.6043903    3.9933987 
H     8.7134133    1.8242047    2.1638279 
N     7.8869282    1.6524065   -0.4712012 
C     6.9840326    1.1259128   -1.4551375 
H     8.6884743    2.3136844   -0.5895740 
H     6.9920192    1.3858556   -2.5146854 
