48
 energy: -9.205536035273 gnorm: 0.000989547799 xtb: 6.6.0 (2ccbbd7)
C           -3.59245919730798        0.84097536154933        2.41609891076262
C           -2.30345189343783        0.48704854212849        2.09483374603870
C           -3.96817434139132        2.18369840262354        2.46702503167958
C           -3.00368222270045        3.15066483291952        2.18554519230020
C           -1.71699002145239        2.78881464983335        1.86523747779185
C           -1.34633027116277        1.45325866515173        1.81818283231589
H           -2.02660377807512       -0.55243602220102        2.05076344124447
H           -3.29413267624220        4.18542908624450        2.22258950347776
H           -0.98371877404572        3.54460796833027        1.64166644312859
H           -4.32558619310082        0.08396829244110        2.62975852153278
C            0.03969281606656        1.06281576804225        1.41071672537250
C            0.28169093747153        1.20711768335332       -0.09346324876042
H            0.23183975886524        0.02382907767024        1.69461722409426
H            0.77115372707459        1.65995468042454        1.96474402559120
C            1.67229695721025        0.74322769204044       -0.44434919806192
O           -5.25566550649272        2.57365921055251        2.78215819165712
H           -5.81319407947046        1.78498983573524        2.95670439741401
O            1.96514247258107       -0.41180610409735       -0.22003051442757
N           -0.67493702328291        0.44721934476238       -0.88226576147532
H            0.17796735272434        2.26489859579058       -0.37894230294787
H           -0.46583551353782       -0.53624887031136       -0.77283154076144
H           -1.61724381191559        0.60525403137417       -0.54891266974469
N            2.53983471679766        1.64554706713332       -1.01257573183366
C            3.90481532476111        1.27938009349085       -1.35857575851086
H            2.31540206224438        2.64019841405640       -1.07507229626787
C            4.58097131748962        2.41053902363237       -2.10864510702092
O            5.52659570306507        2.93276442070532       -1.55620562064730
O            4.12747469293701        2.76767999452498       -3.33376545943483
H            3.16583951916168        2.38262214951790       -3.75972245835058
C            3.97059195261295       -0.01003582430338       -2.17581785611834
H            4.44007218567698        1.14241774005083       -0.40645630125536
C            3.31465175548580        0.16895553550641       -3.48893191309308
H            3.47304675305874       -0.81749078929679       -1.62824175445503
H            5.01340132843469       -0.30841431590208       -2.32506892786429
C            3.34252240181982       -0.65499750265962       -4.59590894925859
C            3.93592779460394       -1.92572418154777       -4.80436551194040
C            3.74350841701153       -2.55402370004828       -6.00411333447988
C            2.97600287498155       -1.96725975373515       -7.02137986113479
C            2.39277592144219       -0.72861735626421       -6.85893271764692
C            2.57608241374883       -0.05000020575910       -5.65915375249302
H            4.51415189996029       -2.38025927683906       -4.01982080840343
H            4.18520544213521       -3.52231921746271       -6.17166531812285
H            2.84140609749820       -2.49618844778483       -7.95007692329007
H            1.80926716663009       -0.27670650052207       -7.64073913107523
N            2.10522480577082        1.17991678251556       -5.23700918840409
C            2.48953757781138        1.35090043269700       -3.84706937718230
H            1.20003171455162        1.56699793069528       -5.51665220441761
H            2.41424895295634        2.49288842238305       -3.38029707276535
