48
 energy: -9.278318273638 gnorm: 0.000572183781 xtb: 6.6.0 (2ccbbd7)
C           -1.67644689033061        0.94376590787207        3.51740836106610
C           -0.45225879535624        1.47834272798786        3.19177515935639
C           -2.69530504247777        0.87106354252662        2.56693591013599
C           -2.43543567750103        1.34842552114674        1.28299700616710
C           -1.20990878763580        1.88338694913814        0.96681771617104
C           -0.20125393751069        1.96209738950083        1.91631005018541
H            0.32977257652515        1.52200885754905        3.93015060467538
H           -3.21399894558069        1.27589323396450        0.54478264986173
H           -1.00883490920252        2.21597627703314       -0.03710258169388
H           -1.86001308265050        0.57319687909595        4.50990548657346
C            1.14330100697127        2.52319761251535        1.56668097623294
C            2.18996208266185        1.46242595253219        1.19355788314742
H            1.51048290409125        3.11591857296986        2.41061472246761
H            1.04310227126432        3.22904984809683        0.73715211364784
C            1.83940577523406        0.78329977342351       -0.12212753128101
O           -3.93777153171649        0.34391705144959        2.86239516848392
H           -3.95698866448175        0.02912776886435        3.79172049612593
O            0.80902335097228        0.13720083493544       -0.15310723571897
N            3.52745267882984        2.03553322138123        1.20269633952495
H            2.16991558675022        0.67275276657514        1.96065151066379
H            3.53691975975708        2.77957171572611        0.51390566095522
H            3.73754619894029        2.45915637985019        2.09610769740202
N            2.61015201842384        0.87717962480439       -1.26969472053254
C            4.01963078539199        1.28575199940563       -1.35843792601340
H            2.30184263164466        0.35139622418411       -2.08319150565066
C            4.15376076188534        2.78231317651009       -1.55626156258248
O            5.27024612823468        3.23255242101201       -1.69772342100993
O            3.01361179768496        3.51558966997699       -1.51196455392012
H            2.22690281131640        2.92251288270051       -1.48524882340123
C            4.75584944091216        0.53498443811153       -2.46209039220738
H            4.50462948169681        1.04395850932902       -0.40627729886201
C            4.75616363415328       -0.95604633641032       -2.33654986156607
H            5.78991646732184        0.89320157083696       -2.50721780481022
H            4.30793004702851        0.81101460989978       -3.42164323366577
C            4.49387190484331       -1.78812751779407       -1.19831413516558
C            4.10798515180407       -1.54389479294156        0.13437041728826
C            3.93530606397622       -2.59989862332383        0.98436846054271
C            4.13539414415640       -3.92027546587399        0.55574150317349
C            4.50657272958038       -4.19133583482826       -0.73113113217346
C            4.68608791567980       -3.12157443361357       -1.61667209428258
H            3.92498360258803       -0.54381216026113        0.47808240370418
H            3.63105622215135       -2.41787821907892        2.00187054680679
H            3.98963425226489       -4.72997002852631        1.25146653234335
H            4.66026371357647       -5.19888481883354       -1.07377211404314
N            5.05067773358497       -3.09812497325163       -2.94865378981538
C            5.09251175714853       -1.79521104983229       -3.37027646599886
H            5.25109565642624       -3.92586748210732       -3.51297790115329
H            5.36085087414328       -1.48111201230107       -4.36620741743560
