48
Energy =
C     4.2208933    0.8680281    4.5510597 
C     3.8065661    0.5726870    3.2934710 
C     3.3182910    1.2391213    5.4981052 
C     2.0059862    1.3128055    5.1784511 
C     1.5859880    1.0186087    3.9217595 
C     2.4854058    0.6432776    2.9720585 
H     4.5383214    0.2791941    2.5455374 
H     1.2967432    1.6115296    5.9426359 
H     0.5275846    1.0865501    3.6839770 
H     5.2753153    0.8075097    4.7970328 
C     2.0314863    0.3220690    1.5667237 
C     2.2780183    1.4960736    0.5895504 
H     0.9568990    0.0319529    1.5466732 
H     2.5808930   -0.5804211    1.2201537 
C     2.2463765    1.0088988   -0.8507902 
O     3.7114114    1.5498694    6.8039688 
H     4.7105039    1.4794893    6.9627319 
O     1.2021524    0.1922724   -1.2725620 
N     1.2887554    2.5646036    0.8003774 
H     3.2928594    1.9133239    0.7679898 
H     0.3209596    2.1889975    0.6519267 
H     1.3479049    2.9175317    1.7840533 
N     3.0748577    1.6137838   -1.8501587 
C     4.5313462    1.3759980   -1.8017800 
H     2.6146409    2.2524312   -2.5394857 
C     5.2771851    2.4793739   -2.5520237 
O     6.1263195    2.1698635   -3.6082750 
O     5.1491774    3.8143337   -2.1720520 
H     4.4755691    3.9260545   -1.4277670 
C     4.8486727   -0.0343281   -2.3584446 
H     4.9027470    1.4511295   -0.7579747 
C     4.5539767   -1.1264105   -1.3530961 
H     5.9219044   -0.1142381   -2.6433220 
H     4.2658041   -0.1988749   -3.2929549 
C     5.2637440   -1.4118033   -0.2495400 
C     6.3974638   -0.8376444    0.2283721 
C     6.9137516   -1.3017982    1.4022769 
C     6.2955941   -2.3203106    2.0740734 
C     5.1594350   -2.8835533    1.5731075 
C     4.6719239   -2.4104524    0.4071455 
H     6.8897097   -0.0278929   -0.3027934 
H     7.8220005   -0.8593336    1.8047821 
H     6.7126605   -2.6842849    3.0102598 
H     4.6550309   -3.6911518    2.0935226 
N     3.5013061   -2.8405694   -0.2718778 
C     3.4968746   -1.9559539   -1.4011468 
H     2.8212781   -3.5954864   -0.0218048 
H     2.7186755   -1.9334341   -2.1630009 
