48
Energy =
C     8.7149868    1.1836534   -0.7966165 
C     7.8785890    1.6732192    0.1408883 
C     8.2742026    0.5927390   -1.9294565 
C     6.9613393    0.4401599   -2.1618632 
C     5.8883037    0.8586787   -1.1682311 
C     6.5365902    1.5789661    0.0202689 
H     8.3103131    2.1649727    1.0093679 
H     6.6640183   -0.0345506   -3.0922614 
H     5.4320520    1.6763362   -1.7894989 
H     9.7832024    1.2903130   -0.6402789 
C     5.6442777    2.2125820    1.0588278 
C     5.1704695    1.2108019    2.1492239 
H     4.7666936    2.6676402    0.5439174 
H     6.1463828    3.0859934    1.5265584 
C     4.9380328   -0.2109734    1.6264664 
O     9.1695655    0.1257432   -2.8981233 
H    10.1475608    0.2604281   -2.6650391 
O     5.7082421   -1.2668285    2.1041656 
N     6.1213398    1.2200150    3.2733314 
H     4.1764270    1.5387312    2.5383772 
H     7.0612881    0.8866932    2.9492282 
H     6.2262758    2.1837692    3.6674249 
N     3.9030471   -0.5146579    0.6806465 
C     4.2222935   -0.0937957   -0.7126260 
H     2.9815790   -0.1838385    1.0481502 
C     3.2429612    1.0728148   -1.1666330 
O     3.0941828    1.3219640   -2.5307435 
O     2.6305859    1.9711217   -0.2743915 
H     2.8328336    1.8561231    0.7103428 
C     3.8124915   -1.3285577   -1.5907004 
H     5.5813500   -0.3792291   -0.8055558 
C     2.3699187   -1.7888622   -1.4200320 
H     4.4600146   -2.1970270   -1.3281565 
H     4.0283495   -1.1157844   -2.6597584 
C     1.3381229   -1.6019628   -2.2644019 
C     1.2925654   -0.9834159   -3.4734249 
C     0.1024719   -0.9391021   -4.1382073 
C    -1.0126734   -1.5157894   -3.5978600 
C    -0.9436118   -2.1426913   -2.3900507 
C     0.2438467   -2.1690150   -1.7491154 
H     2.1722581   -0.5281790   -3.9144331 
H     0.0417639   -0.4388609   -5.1019778 
H    -1.9579170   -1.4745155   -4.1335439 
H    -1.8173068   -2.6101770   -1.9487942 
N     0.5262826   -2.7854033   -0.5018959 
C     1.9240035   -2.4997257   -0.3671759 
H    -0.1103896   -3.3121946    0.1392815 
H     2.5395464   -2.8195087    0.4722638 
