48
Energy =
C     1.6184849   -0.0136449    2.1405613 
C     1.1377255   -0.3485153    0.9165175 
C     2.4179790   -0.8762992    2.8205627 
C     2.7239649   -2.0734006    2.2743057 
C     2.2516212   -2.4107675    1.0481051 
C     1.4779543   -1.5377570    0.3418971 
H     0.4638462    0.3399780    0.4171453 
H     3.3511236   -2.7588520    2.8337331 
H     2.5016693   -3.3840067    0.6347654 
H     1.3525602    0.9420434    2.5794732 
C     0.9409247   -1.9293241   -1.0281059 
C     1.9302346   -1.8305447   -2.2315788 
H     0.0212520   -1.3480861   -1.2618214 
H     0.5948338   -2.9847660   -0.9599245 
C     2.0132105   -0.4653863   -2.9294385 
O     2.9261749   -0.5645059    4.0853993 
H     2.6974579    0.3724188    4.3998157 
O     1.7036595   -0.4016862   -4.2833246 
N     3.2546719   -2.4089770   -1.9372813 
H     1.4781836   -2.4681411   -3.0315002 
H     3.6804618   -2.0039568   -1.0753126 
H     3.1515318   -3.4378157   -1.7689795 
N     2.2215043    0.7848236   -2.2473205 
C     3.6222847    0.9963826   -1.8284501 
H     1.5715636    0.8187581   -1.4387888 
C     3.7269841    2.1830744   -0.8730468 
O     4.3682270    2.0213250    0.3478470 
O     3.2152205    3.4393868   -1.1999297 
H     2.7129778    3.4165181   -2.0765781 
C     4.5100758    1.2095913   -3.0796275 
H     3.9931225    0.1272527   -1.2486484 
C     5.9774254    1.2381627   -2.7160537 
H     4.2247686    2.1541385   -3.5936224 
H     4.3330035    0.4033271   -3.8282487 
C     6.7872171    0.1782983   -2.5653102 
C     6.5298756   -1.1445818   -2.7312620 
C     7.5362557   -2.0344194   -2.4965354 
C     8.7695891   -1.5944665   -2.1016306 
C     9.0035221   -0.2610726   -1.9382554 
C     7.9924347    0.5996797   -2.1795892 
H     5.5506343   -1.4992096   -3.0397911 
H     7.3543867   -3.0993925   -2.6212554 
H     9.5654819   -2.3106858   -1.9131685 
H     9.9734264    0.1045210   -1.6186248 
N     8.0185001    2.0143243   -2.0509360 
C     6.6697296    2.3488863   -2.4070665 
H     8.8111213    2.6397537   -1.7776167 
H     6.2544873    3.3565224   -2.3807019 
