48
 energy: -8.964892270435 gnorm: 0.000703884291 xtb: 6.6.0 (2ccbbd7)
C            2.29825374015083       -2.66703361657998        0.84451633090410
C            1.19949410636769       -1.86581949499870        0.54112940503515
C            3.61606241995024       -2.17232280607542        0.73131869700724
C            3.81155616594605       -0.88463674346529        0.31679130830122
C            2.69300790900710        0.03943648330242       -0.03084081678660
C            1.33179222139732       -0.57787431698845        0.12868898549635
H            0.21056765129424       -2.28538018768782        0.61182884575310
H            4.82308284163362       -0.52776160032498        0.29384937839666
H            2.73333874619746        0.95207748997404        0.88584866298149
H            2.15188120541729       -3.68252153507157        1.16456480229334
C            0.12577872446232        0.19474035249354       -0.32359300612340
C            0.42692925201650        1.53992200181617       -1.02811210297234
H           -0.53495606124389        0.36090693298223        0.53444254306727
H           -0.44662345104933       -0.42999652610257       -1.01653031944448
C            1.72282970509886        1.53420795563341       -1.76814584891341
O            4.70718179342952       -2.96500536091025        1.04217273656484
H            4.40155566355600       -3.84845394064791        1.34305678189762
O            2.05036337534245        2.48418716284222       -2.73754516374700
N           -0.66465931049696        1.93696494006514       -1.91177630048461
H            0.51495688123624        2.32809956176190       -0.26246063085841
H           -0.65931409506061        1.36298428463309       -2.74553167238970
H           -1.56350820357598        1.82589261525044       -1.45669269784707
N            2.76504834442816        0.59752734838856       -1.47992532761092
C            4.13341247019701        1.09526801244531       -1.94605116774996
H            2.63388261831133       -0.28114242139833       -2.02839395623680
C            4.23571763689115        2.58662036284686       -1.83690388312209
O            3.21916164316009        3.29965020972988       -2.27152910186242
O            5.36091715588547        3.13373527050717       -1.31649750441336
H            6.00865215509780        2.43843504303029       -1.06638557720384
C            4.39030366316722        0.65928105716078       -3.39016238921400
H            4.89560341785370        0.64917033541935       -1.30008867899915
C            4.17190838094085       -0.80448886199258       -3.57667046473599
H            5.40501270169323        0.93121103185714       -3.69806837528745
H            3.71280435917491        1.21795622575817       -4.04439295041777
C            4.91874529914955       -1.84793219279050       -2.95211393989363
C            6.09917737600166       -1.85269266077353       -2.18878917547017
C            6.54274318806709       -3.03991404064655       -1.67547638908651
C            5.84104898178019       -4.23584465698493       -1.89910685830954
C            4.69004323688380       -4.25501888683741       -2.63860684184699
C            4.21827731593630       -3.04961032174415       -3.17353775136353
H            6.63276743428623       -0.93466847347355       -2.01846898883318
H            7.43997084355841       -3.05882386171269       -1.07920529561234
H            6.21489082872549       -5.15233969437871       -1.47342212490619
H            4.14253531433014       -5.16474963756970       -2.80792176475350
N            3.08830880688246       -2.74256399345153       -3.91162436369785
C            3.07038565901988       -1.39109180812035       -4.15408605993639
H            2.38750092529741       -3.42260078235833       -4.21235593992635
H            2.27685630766855       -0.86704078815572       -4.66218458712770
