48
Energy =
C    -4.7024156    1.0905604    0.0913343 
C    -3.6938773    1.4464805   -0.7442095 
C    -5.1757198   -0.1837970    0.0870244 
C    -4.6371761   -1.0944107   -0.7548281 
C    -3.6283223   -0.7446797   -1.5927831 
C    -3.1520045    0.5307516   -1.5949828 
H    -3.3270439    2.4690430   -0.7253449 
H    -5.0268698   -2.1072514   -0.7474021 
H    -3.2092555   -1.4917500   -2.2621716 
H    -5.1296316    1.8269293    0.7638621 
C    -2.0122939    0.9137002   -2.5139001 
C    -0.6432465    0.4776132   -1.9407252 
H    -2.0249209    2.0096032   -2.7096461 
H    -2.1748824    0.4260457   -3.5024173 
C     0.4611354    0.6553505   -2.9605071 
O    -6.2101276   -0.5849776    0.9365863 
H    -6.5750147    0.1540750    1.5283446 
O     1.1201281   -0.4501947   -3.4821450 
N    -0.3303069    1.2092417   -0.7003381 
H    -0.6735521   -0.6199680   -1.7278676 
H    -0.6291226    2.2106988   -0.7763178 
H    -0.8906348    0.7985076    0.0857338 
N     0.9138658    1.9551642   -3.3534321 
C     2.0737877    2.5409218   -2.6296588 
H     0.4314483    2.4140278   -4.1632891 
C     2.6019493    3.7977822   -3.3411947 
O     2.4353309    5.0585025   -2.7660601 
O     3.2340449    3.6436677   -4.5984811 
H     3.3546517    2.5328893   -4.8015166 
C     3.2131561    1.4883833   -2.3944120 
H     1.7286659    2.8852527   -1.6294982 
C     3.7686916    0.8231624   -3.6536991 
H     2.8579866    0.6995442   -1.6974007 
H     4.0531187    2.0004776   -1.8730410 
C     4.9337817    0.1679478   -3.6868416 
C     5.5953295   -0.4427170   -2.6680108 
C     6.8107522   -1.0019285   -2.9257829 
C     7.3550299   -0.9210692   -4.1755402 
C     6.6889499   -0.2757999   -5.1728944 
C     5.4777615    0.2560524   -4.9017392 
H     5.1735343   -0.5071751   -1.6667652 
H     7.3557333   -1.5096902   -2.1318529 
H     8.3313958   -1.3599342   -4.3715169 
H     7.1279060   -0.1762276   -6.1617308 
N     4.7008855    1.0502407   -5.7871094 
C     3.4924007    1.3423441   -5.0436220 
H     4.8986702    1.3358261   -6.7697722 
H     2.6020956    0.8495010   -5.4958827 
