48
Energy =
C    -0.5667245    4.4471247   -2.0569803 
C    -0.3391698    4.1824409   -0.7460099 
C     0.3716776    5.0946367   -2.7964692 
C     1.5339486    5.4700246   -2.2186935 
C     1.7627572    5.2196598   -0.9040975 
C     0.8264914    4.5724196   -0.1561876 
H    -1.0958472    3.6480551   -0.1769855 
H     2.2879564    5.9533553   -2.8304906 
H     2.7124858    5.5138320   -0.4713997 
H    -1.4993512    4.1338410   -2.5136904 
C     1.0824062    4.2529574    1.3063423 
C     2.1212784    3.1186897    1.5488282 
H     0.1259015    3.9501915    1.7889002 
H     1.3838252    5.1802924    1.8394704 
C     2.0170717    1.9798856    0.5432588 
O     0.1655810    5.3850156   -4.1492048 
H    -0.7184436    5.0474758   -4.5132561 
O     1.1774648    0.9052900    0.8122097 
N     3.5034560    3.6412513    1.6321734 
H     1.8553567    2.6430603    2.5243966 
H     3.5574840    4.6760079    1.4932001 
H     3.8957248    3.4556753    2.5857667 
N     2.5820653    2.0914992   -0.7661506 
C     4.0222571    1.8201297   -0.9158591 
H     1.9739025    2.3864064   -1.5628422 
C     4.7200489    2.9077981   -1.7223305 
O     4.0045681    3.6855131   -2.6243788 
O     6.0994559    3.1004150   -1.6346653 
H     6.5285343    2.4977304   -0.9489643 
C     4.2161053    0.4203035   -1.5360350 
H     4.5206841    1.8300333    0.0795499 
C     3.4451139    0.2438864   -2.8283513 
H     3.8621883   -0.3390164   -0.8027999 
H     5.2957195    0.2156423   -1.7037365 
C     3.8523776    0.5564454   -4.0694739 
C     5.0350585    1.0678013   -4.4984808 
C     5.1922644    1.3083064   -5.8317779 
C     4.1778750    1.0361121   -6.7073582 
C     2.9987538    0.5236199   -6.2543551 
C     2.8670638    0.2946069   -4.9309092 
H     5.8383318    1.2991962   -3.8054963 
H     6.1257424    1.7293064   -6.1974464 
H     4.3087871    1.2375512   -7.7675105 
H     2.1812305    0.3096485   -6.9342065 
N     1.7251023   -0.2193343   -4.2594216 
C     2.1817554   -0.2128913   -2.9000847 
H     0.8049262   -0.5229725   -4.6529869 
H     1.5748599   -0.4972781   -2.0407793 
