48
 energy: -9.062976849515 gnorm: 0.000422368954 xtb: 6.6.0 (2ccbbd7)
C            0.24221161852908        0.17237276753454        3.54422431650641
C            0.52416965252641       -0.17871127806127        2.24600173109133
C            0.99145935519383       -0.35289220929561        4.59714529674052
C            2.02905208342438       -1.23369562763820        4.29267774987747
C            2.30220399048349       -1.57877708671990        2.99023568994453
C            1.55002902279580       -1.06179830795793        1.94477155718297
H           -0.04342342908078        0.24600772031624        1.43676355151464
H            2.60857395013992       -1.63661252649124        5.10394490262887
H            3.10714928355408       -2.25958208702390        2.77265187809816
H           -0.55688177827537        0.85886875660666        3.75976489320249
C            1.85662239489257       -1.43149221701830        0.52386555532107
C            2.47901508336995       -0.28688581924751       -0.30127386635136
H            0.93529989138446       -1.76414432455770        0.03425481539761
H            2.52839389049068       -2.29642163626649        0.52225219999677
C            1.42656317555753        0.67910716790859       -0.81949226067997
O            0.73554661507151       -0.02530953994486        5.91520474769920
H           -0.02206126671081        0.59675477642510        5.96582157334586
O            0.26250612979196        0.52782092666643       -0.50375038767385
N            3.49213720831231        0.42728721613845        0.46246329333583
H            2.97386989060448       -0.71920666977823       -1.18446394248423
H            3.04416072466733        0.91163364587068        1.22796070001536
H            4.15404793226020       -0.22302633369383        0.86517944287752
N            1.80077691868345        1.72688342330008       -1.63641809268897
C            3.19331138136376        2.06400993431343       -1.95357896458802
H            1.12949447974977        2.47804793971552       -1.78261373432820
C            3.30839397301719        3.49620055827605       -2.37908188580893
O            4.41664722119981        4.19924856746919       -2.00723815817962
O            2.30248072083592        4.01880166123111       -3.15802031180813
H            1.70355061863967        3.29978846311114       -3.46656214584407
C            3.79073040215220        1.12647380168302       -3.02439463829111
H            3.75862713617743        1.94883581517853       -1.01887628404837
C            5.18767433208830        0.68873803182245       -2.72366119206168
H            3.76584854440057        1.62363309153044       -3.99956256314129
H            3.15048977572384        0.24529543578115       -3.13208374841640
C            6.24457112699353        1.48446350547399       -2.18745335910315
C            6.32610474096505        2.82239179510447       -1.77944413828785
C            7.50710409996967        3.29981569133071       -1.29610097736189
C            8.63784871551313        2.47194533237869       -1.19990370145462
C            8.58782953950434        1.16106255127964       -1.58866109356174
C            7.38037631468258        0.65580769612319       -2.08833489687856
H            5.33280464389022        3.54296815175935       -1.88104288566127
H            7.57239535389036        4.32964220320409       -0.98676423981364
H            9.55825600865745        2.87875392268768       -0.81504503899978
H            9.44747009695015        0.51882568642030       -1.52101392954666
N            7.02226616497722       -0.59680442490386       -2.55313802496944
C            5.70401203961555       -0.56581384323524       -2.93642080757082
H            7.65178805818647       -1.39956902027369       -2.60757253050776
H            5.16261847966181       -1.40343375092763       -3.34526318543294
