48
Energy =
C     2.9423821   -3.3194940    2.9848972 
C     2.3969957   -2.4387812    2.1085505 
C     4.1737503   -3.8464257    2.7481525 
C     4.8517936   -3.4856105    1.6348137 
C     4.3114200   -2.6054211    0.7554234 
C     3.0780461   -2.0784377    0.9860739 
H     1.4146359   -2.0220040    2.3136322 
H     5.8334112   -3.9085915    1.4559212 
H     4.8726939   -2.3269975   -0.1332205 
H     2.3914548   -3.5996661    3.8753149 
C     2.4840109   -1.0880633    0.0101352 
C     3.0946217    0.3266737    0.1635651 
H     1.3786861   -1.0288462    0.1179317 
H     2.6597882   -1.4683006   -1.0174073 
C     2.7265095    1.2195898   -1.0251176 
O     4.7625744   -4.7584095    3.6320650 
H     4.1925976   -4.9688597    4.4431148 
O     1.7558919    2.2019242   -0.8423086 
N     2.6656510    0.9257029    1.4413241 
H     4.2048412    0.2771529    0.1709285 
H     1.6213648    1.0000724    1.4714944 
H     2.9821434    0.3352482    2.2439414 
N     3.0529767    0.8650883   -2.3805904 
C     4.3401816    0.2291344   -2.7325906 
H     2.2565102    0.8332066   -3.0585479 
C     5.3357459    1.2439739   -3.2520172 
O     6.3925921    1.6370306   -2.4398441 
O     5.2214326    1.7851729   -4.5137427 
H     4.2327525    1.3579607   -4.9568248 
C     4.0738040   -0.9402694   -3.7165285 
H     4.8706366   -0.1822012   -1.8512339 
C     3.4708159   -0.5594711   -5.0570901 
H     3.3935983   -1.6732766   -3.2348006 
H     5.0436198   -1.4496493   -3.9197622 
C     3.1261809   -1.4460482   -5.9977718 
C     3.3155419   -2.7919481   -6.0197785 
C     2.8544612   -3.4996553   -7.0913844 
C     2.2106073   -2.8558719   -8.1103650 
C     2.0270672   -1.5057097   -8.0552219 
C     2.4988526   -0.8328019   -6.9802405 
H     3.8327611   -3.2906080   -5.2082486 
H     3.0042080   -4.5746249   -7.1333399 
H     1.8453260   -3.4175810   -8.9653180 
H     1.5172872   -0.9731193   -8.8491622 
N     2.3767031    0.5561607   -6.7410244 
C     3.0869214    0.8637025   -5.4794942 
H     1.8506638    1.2488363   -7.3166766 
H     3.3876564    1.7698532   -6.0462517 
