48
Energy =
C     7.2019511    0.1622909    1.3216311 
C     5.9961697    0.5266920    1.8261785 
C     7.4097179   -1.1140183    0.9009059 
C     6.4070664   -2.0177720    0.9902063 
C     5.1974823   -1.6574811    1.4870221 
C     4.9878037   -0.3832578    1.9172776 
H     5.8414886    1.5534314    2.1492012 
H     6.5805895   -3.0321928    0.6514039 
H     4.3967669   -2.3932628    1.5249949 
H     7.9975988    0.8962913    1.2513966 
C     3.6317335    0.0343507    2.4405125 
C     2.7991566    0.7460873    1.3518385 
H     3.7717823    0.7124195    3.3107510 
H     3.0719049   -0.8506466    2.8209265 
C     2.5080064   -0.1718063    0.1752582 
O     8.6386267   -1.5179507    0.3673912 
H     9.3440369   -0.7890298    0.3617816 
O     1.8070268   -1.3563601    0.3767998 
N     1.5492852    1.2571098    1.9330642 
H     3.3816969    1.6098427    0.9525992 
H     0.9910211    0.4629386    2.3303471 
H     1.7627549    1.9217437    2.7129727 
N     2.6891077    0.3000403   -1.1619997 
C     4.0598505    0.3143186   -1.7045144 
H     1.8446757    0.5703071   -1.7152017 
C     4.4813423    1.7356778   -2.0585041 
O     3.5946962    2.5676313   -2.7315497 
O     5.7631731    2.2110221   -1.7742827 
H     6.3447841    1.5090107   -1.3424371 
C     4.1201328   -0.6015478   -2.9412986 
H     4.7845354   -0.0629224   -0.9486570 
C     4.1603754   -2.0596034   -2.5426455 
H     5.0119320   -0.3635406   -3.5615112 
H     3.2379137   -0.4158339   -3.5943819 
C     5.2562059   -2.8063553   -2.3316185 
C     6.5697065   -2.4753333   -2.4302126 
C     7.5016747   -3.4285332   -2.1417894 
C     7.1125116   -4.6835207   -1.7627989 
C     5.7879918   -4.9912054   -1.6644672 
C     4.8852931   -4.0312400   -1.9553109 
H     6.8845718   -1.4763244   -2.7142702 
H     8.5599794   -3.1826575   -2.1968192 
H     7.8626129   -5.4349370   -1.5290373 
H     5.4608154   -5.9783519   -1.3563804 
N     3.4709704   -4.1357519   -1.8895032 
C     3.0788332   -2.8114711   -2.2760236 
H     2.8735325   -4.9549042   -1.6332431 
H     2.0504102   -2.4553351   -2.2986755 
