48
Energy =
C    -2.4206100    3.5892243    1.8625532 
C    -1.3247341    2.7912773    1.7943572 
C    -2.9303099    4.1495461    0.7326943 
C    -2.3383394    3.9067949   -0.4590800 
C    -1.2431470    3.1096143   -0.5330433 
C    -0.7279179    2.5487896    0.5952379 
H    -0.9304810    2.3475134    2.7046541 
H    -2.7517558    4.3581936   -1.3541769 
H    -0.7813095    2.9253134   -1.5013506 
H    -2.8889739    3.7773103    2.8223638 
C     0.4828267    1.6481819    0.5058374 
C     0.1119049    0.2233153    0.0279997 
H     1.0164013    1.5954560    1.4809492 
H     1.2078134    2.1109389   -0.2013182 
C     1.3468313   -0.5359722   -0.4206784 
O    -4.0595301    4.9749205    0.7693683 
H    -4.4396498    5.1118040    1.6991586 
O     2.4201787   -0.6928378    0.4506100 
N    -0.5934146   -0.5150705    1.0868135 
H    -0.5535153    0.2949543   -0.8644555 
H     0.0014730   -0.5516985    1.9492705 
H    -1.4823820   -0.0196609    1.3301997 
N     1.5479369   -0.8041178   -1.8136295 
C     2.4525899    0.1145146   -2.5296918 
H     1.1061503   -1.6512151   -2.2361102 
C     1.7281782    1.3775032   -2.9680208 
O     2.3548446    2.6047928   -2.7984971 
O     0.4684914    1.3444763   -3.5667235 
H     0.1165651    0.4009860   -3.6382391 
C     3.0838140   -0.6122175   -3.7349289 
H     3.2679019    0.4622266   -1.8476827 
C     4.0642200   -1.6697772   -3.2789059 
H     3.6129193    0.1155931   -4.3907402 
H     2.2868403   -1.0736531   -4.3597886 
C     5.3404075   -1.4738067   -2.9119810 
C     6.0712860   -0.3294802   -2.8810023 
C     7.3639278   -0.3983345   -2.4509890 
C     7.8994365   -1.5947674   -2.0605841 
C     7.1449799   -2.7298996   -2.0970443 
C     5.8698006   -2.6365645   -2.5287091 
H     5.6467396    0.6233741   -3.1840926 
H     7.9704401    0.5037188   -2.4143475 
H     8.9292902   -1.6406050   -1.7151101 
H     7.5519598   -3.6855352   -1.7844197 
N     4.9175467   -3.6859341   -2.6285576 
C     3.7717042   -2.9715997   -3.1124981 
H     5.0294534   -4.7035385   -2.4144739 
H     2.7955276   -3.4185503   -3.2868982 
