48
 energy: -9.292199690360 gnorm: 0.000525528298 xtb: 6.6.0 (2ccbbd7)
C           -4.35307940717889        2.15565153881513       -2.22002667689995
C           -2.99915077519930        2.35062624403851       -2.35889454350439
C           -4.92835840886594        0.92266785532021       -2.52924923282539
C           -4.09486869220699       -0.10120059885856       -2.97828972960107
C           -2.74230848356925        0.10132486463264       -3.11351827345507
C           -2.17485908971107        1.33037406255025       -2.81170911034133
H           -2.56568105765627        3.30517706502846       -2.11417021464766
H           -4.53754926494815       -1.05223557768342       -3.21459876011716
H           -2.10854734898101       -0.69861584848093       -3.45604759080567
H           -4.98293687540620        2.95403783806952       -1.87070104788419
C           -0.69570111955610        1.52838789281996       -2.92161976938284
C            0.07649635967112        0.94338917233643       -1.73641604473990
H           -0.46515004713358        2.59451474685032       -3.00271262963853
H           -0.32914541354561        1.07997996519222       -3.85116175324164
C            1.56820143839884        1.03668215501791       -1.96702318398109
O           -6.28501543110831        0.69301930847891       -2.40195012084591
H           -6.73475496921572        1.50410397675547       -2.08072235481887
O            2.00196611093889        1.11765939698614       -3.09897220764786
N           -0.28254704399991        1.59130063057810       -0.48151885148081
H           -0.17347665296286       -0.12451612559006       -1.64075084268540
H            0.00851397376939        2.55938813595964       -0.50951874425408
H           -1.28537212436212        1.57943389105128       -0.35164388228416
N            2.36890367291640        1.02514698232677       -0.84924865590740
C            3.82802307399920        1.17387633617703       -0.88277391360675
H            1.93809026499026        1.08474409374111        0.08039358428720
C            4.20461947208614        2.63109787375879       -1.05598373954048
O            4.99490246545217        3.12081860252736       -0.27920879121987
O            3.61970886955621        3.25520035469388       -2.10325610060877
H            3.02462910494209        2.60633492977868       -2.55423864583661
C            4.48131814490837        0.30723346221898       -1.95581889001141
H            4.21390379802667        0.85208386482731        0.09617680934031
C            4.14728456450668       -1.13590518740559       -1.80561064603647
H            5.56726824850019        0.44524329266948       -1.94288981002505
H            4.14342363825378        0.64800294271941       -2.93928950433400
C            4.81208604243820       -2.09337691665464       -0.98529953805966
C            5.94445085511366       -2.02106151590660       -0.15644269780107
C            6.33159236676434       -3.14370837582781        0.52144969801082
C            5.62001400702557       -4.34860904767468        0.39973946023079
C            4.51448981199937       -4.44154667035562       -0.40084846231759
C            4.10069610755421       -3.30354730385633       -1.10463007155604
H            6.48310135604039       -1.09466500428806       -0.06392486784277
H            7.19659759302940       -3.10516132926259        1.16259082687540
H            5.95193744792302       -5.21425107794480        0.94869293776531
H            3.96261640820593       -5.35913746453667       -0.49841807437821
N            3.03639851946161       -3.07981384159627       -1.96160900114438
C            3.06846221471887       -1.76932980417642       -2.36821332318652
H            2.33511973900348       -3.77779890335296       -2.21589311700804
H            2.33915202828998       -1.29017716740033       -3.00127587676723
