48
Energy =
C     2.5573908   -2.2918070   -8.6316239 
C     2.7217009   -1.4142609   -7.6098162 
C     2.8640098   -3.6054120   -8.4605365 
C     3.3325825   -4.0322782   -7.2658954 
C     3.4989253   -3.1592908   -6.2401623 
C     3.1977731   -1.8423978   -6.4077808 
H     2.4674244   -0.3685972   -7.7623294 
H     3.5711707   -5.0831193   -7.1422057 
H     3.8736267   -3.5229297   -5.2866607 
H     2.1788829   -1.9403060   -9.5853518 
C     3.3656683   -0.8730294   -5.2590284 
C     2.2095936   -0.9766527   -4.2367640 
H     3.4467375    0.1723434   -5.6346418 
H     4.3310381   -1.0940350   -4.7507746 
C     2.4782538   -0.1191127   -3.0128129 
O     2.7060665   -4.5358521   -9.4925642 
H     2.3509023   -4.1387570  -10.3556390 
O     2.7486717   -0.7313300   -1.7933096 
N     0.9216778   -0.6234261   -4.8604226 
H     2.1543049   -2.0222989   -3.8488822 
H     1.0169502    0.2457224   -5.4369883 
H     0.6259018   -1.3912855   -5.5083661 
N     2.4467774    1.3132474   -3.0882978 
C     3.5518293    2.0523421   -2.4520115 
H     1.6876890    1.7866651   -3.6288204 
C     3.1126940    3.4735654   -2.1047031 
O     3.4328085    4.5377334   -2.9418665 
O     2.3384618    3.7314019   -0.9748555 
H     2.0665133    2.8768468   -0.5103745 
C     4.7920605    2.0165384   -3.3704466 
H     3.8139062    1.5709214   -1.4820243 
C     6.0077769    2.6052636   -2.6910253 
H     4.5797518    2.5597594   -4.3179498 
H     5.0209645    0.9689537   -3.6514364 
C     6.7992843    1.9936539   -1.7970651 
C     6.7358550    0.7317646   -1.2990283 
C     7.6668271    0.3524602   -0.3773173 
C     8.6337126    1.2300970    0.0298707 
C     8.6741754    2.4937342   -0.4810028 
C     7.7437106    2.8446123   -1.3932826 
H     5.9620015    0.0359254   -1.6127928 
H     7.6360920   -0.6514448    0.0399255 
H     9.3696247    0.9211453    0.7681207 
H     9.4293327    3.2046374   -0.1631080 
N     7.5967873    4.1060952   -2.0299140 
C     6.4419217    3.8676793   -2.8487108 
H     8.1771293    4.9708726   -1.9339004 
H     5.9565946    4.6160099   -3.4763730 
