48
Energy =
C    -3.9945210    1.3609641   -2.5743479 
C    -2.6882507    1.0998035   -2.8343766 
C    -4.6886952    0.5773511   -1.7062260 
C    -4.0691979   -0.4623152   -1.1026201 
C    -2.7632067   -0.7276175   -1.3585618 
C    -2.0654560    0.0501631   -2.2307209 
H    -2.1445193    1.7383053   -3.5257742 
H    -4.6324415   -1.0783030   -0.4103919 
H    -2.2809540   -1.5652035   -0.8610002 
H    -4.4817701    2.1989166   -3.0609434 
C    -0.6047971   -0.2347289   -2.5012093 
C     0.3094891    0.3205484   -1.3826477 
H    -0.3066000    0.1804152   -3.4886003 
H    -0.4646586   -1.3369338   -2.5803244 
C     1.7270452   -0.2271855   -1.4824983 
O    -6.0356169    0.8189985   -1.4163580 
H    -6.4254756    1.6164141   -1.9066728 
O     2.2247807   -1.0059652   -0.4415073 
N     0.3108158    1.7920350   -1.3836877 
H    -0.0684022   -0.0372951   -0.3952573 
H     0.5255119    2.1667914   -2.3380066 
H    -0.6343561    2.1480730   -1.1096901 
N     2.5501649   -0.0322119   -2.6510953 
C     3.8046420    0.6658041   -2.2951721 
H     2.0243224    0.5363424   -3.3539621 
C     3.5788715    2.1499254   -1.9898888 
O     3.1532335    3.0002346   -3.0052318 
O     3.7921395    2.6835456   -0.7191150 
H     3.9228737    1.9690714   -0.0184247 
C     4.7992877    0.4690410   -3.4574865 
H     4.2527892    0.1956984   -1.3874448 
C     6.2067932    0.8713826   -3.0704255 
H     4.4560601    1.0271489   -4.3563486 
H     4.8018986   -0.6057097   -3.7484369 
C     6.8092592    2.0517383   -3.2934411 
C     6.3544521    3.1593357   -3.9344782 
C     7.1763224    4.2444070   -4.0176196 
C     8.4273953    4.2077700   -3.4673814 
C     8.8642304    3.0852610   -2.8294423 
C     8.0325717    2.0246010   -2.7597336 
H     5.3611540    3.1981186   -4.3703685 
H     6.8307627    5.1451979   -4.5197215 
H     9.0743579    5.0789652   -3.5351514 
H     9.8524139    3.0412971   -2.3841226 
N     8.2896557    0.7736921   -2.1373275 
C     7.0549848    0.0879251   -2.3802119 
H     9.1490390    0.4451876   -1.6394278 
H     6.8347045   -0.9213739   -2.0380649 
