48
Energy =
C    -3.7578447   -0.2481140    0.3585479 
C    -2.4396321    0.0740087    0.3608484 
C    -4.1690325   -1.4406619   -0.1493657 
C    -3.2564892   -2.3031888   -0.6518985 
C    -1.9368416   -1.9861711   -0.6524375 
C    -1.5201442   -0.7949570   -0.1419905 
H    -2.1249701    1.0321277    0.7674158 
H    -3.5974141   -3.2504712   -1.0547506 
H    -1.2205428   -2.6912512   -1.0650700 
H    -4.4816229    0.4512535    0.7626357 
C    -0.0536639   -0.4251727   -0.1556758 
C     0.2889516    0.5618039   -1.2955828 
H     0.5826595   -1.3343645   -0.2376179 
H     0.2041739    0.0397245    0.8229508 
C     1.7054283    1.0743674   -1.1555681 
O    -5.5199979   -1.8029796   -0.1690614 
H    -6.1382412   -1.1049573    0.2297041 
O     1.9156881    2.4105706   -0.8397586 
N     0.0970796   -0.0644029   -2.6131337 
H    -0.3693181    1.4593741   -1.2159415 
H     0.6124320   -0.9754697   -2.6455331 
H    -0.9190685   -0.2712969   -2.7539767 
N     2.8154958    0.1571259   -1.2043488 
C     3.9214165    0.6055857   -2.0892418 
H     3.1665294    0.0663780   -0.2215520 
C     4.7028467    1.7916304   -1.5174099 
O     6.0867762    1.8124425   -1.6385727 
O     4.0666905    2.8552524   -0.8938351 
H     2.9933194    2.6322913   -0.8677806 
C     3.3969129    0.8650019   -3.5266472 
H     4.6473922   -0.2345764   -2.1356142 
C     4.4567256    1.1458254   -4.5830057 
H     2.6971406    1.7298613   -3.4962211 
H     2.8099853   -0.0200531   -3.8550146 
C     4.2156421    1.6897248   -5.7889333 
C     3.0478535    2.1352781   -6.3226353 
C     3.0649811    2.6460522   -7.5871578 
C     4.2337393    2.6999534   -8.2944992 
C     5.3923261    2.2412494   -7.7421501 
C     5.3498941    1.7427193   -6.4887401 
H     2.1155144    2.0904972   -5.7669956 
H     2.1438942    3.0121039   -8.0348920 
H     4.2390906    3.1087677   -9.3020921 
H     6.3274770    2.2728941   -8.2913382 
N     6.4304496    1.2024338   -5.7453832 
C     5.7680431    0.8278735   -4.5285638 
H     7.4346573    1.0932316   -6.0189346 
H     6.2754364    0.3604092   -3.6870591 
