48
Energy =
C     1.5865892   -0.2967595   -4.0398538 
C     0.4952481   -0.2301926   -3.1912135 
C     2.0462555    0.8672788   -4.5996850 
C     1.5030435    2.0557850   -4.2718256 
C     0.5077541    2.1305219   -3.3625218 
C     0.0295625    1.0029315   -2.7690985 
H     0.0814418   -1.1449034   -2.7782439 
H     1.9101199    2.9555697   -4.7211399 
H     0.1678620    3.1123095   -3.0421411 
H     2.4022983   -2.7570517   -5.8044337 
C    -0.7094554    1.1800021   -1.4494066 
C     0.2203058    1.3103695   -0.1705911 
H    -1.4064842    0.3257424   -1.3060328 
H    -1.3599567    2.0806402   -1.5212533 
C     1.6007144    2.0084114   -0.3404224 
O     3.0675117    0.8488790   -5.5537663 
H     3.4941055   -0.0574308   -5.6849656 
O     2.0012483    3.0655889    0.4673046 
N    -0.5523009    1.9041936    0.9301299 
H     0.4960484    0.2738875    0.1334162 
H    -0.7325734    2.9155395    0.7216087 
H    -1.4788380    1.4266968    1.0247256 
N     2.5630165    1.3409877   -1.1572842 
C     4.0128422    1.4453224   -1.3681960 
H     2.1226117    0.7760945   -1.8473849 
C     4.4744315    2.7194868   -2.0767718 
O     5.8140323    2.8088609   -2.4329603 
O     3.6415056    3.7944951   -2.3878956 
H     2.7445469    3.7267120   -1.9397500 
C     4.4130162    0.1671616   -2.2272363 
H     4.5336777    1.4469535   -0.3855008 
C     3.6128752   -1.0790907   -1.8041795 
H     5.4998618   -0.0343654   -2.1051661 
H     4.2628586    0.3611884   -3.3077186 
C     2.9048310   -2.0334350   -2.5251022 
C     2.8169562   -2.2973764   -3.9304677 
C     3.3994870   -3.5914975   -4.1163864 
C     3.3299377   -4.5793993   -3.1911761 
C     2.8706313   -4.3137500   -1.9629596 
C     2.6971577   -3.0329455   -1.6188262 
H     1.8741593   -1.5302185   -5.2297140 
H     3.7907325   -3.9404163   -5.0729483 
H     3.6581031   -5.5875354   -3.4381916 
H     2.8585729   -5.0901658   -1.2042010 
N     2.9215473   -2.6205625   -0.2858596 
C     3.5964979   -1.4011068   -0.4983223 
H     2.6704065   -3.0943043    0.6128399 
H     4.0965515   -0.8474589    0.2937255 
