48
Energy =
C    -4.7330830    1.0513083   -1.7019039 
C    -3.5565291    1.7191489   -1.8104216 
C    -5.0143678    0.0203712   -2.5431001 
C    -4.1147509   -0.3352082   -3.4881841 
C    -2.9367494    0.3288104   -3.6011729 
C    -2.6517484    1.3632745   -2.7638132 
H    -3.3450458    2.5377709   -1.1275454 
H    -4.3499733   -1.1592149   -4.1527019 
H    -2.2256146    0.0266514   -4.3656247 
H    -5.4477688    1.3428367   -0.9399166 
C    -1.3305067    2.0910657   -2.8784652 
C    -0.1607912    1.2951167   -2.2457100 
H    -1.3922256    3.1023219   -2.4172906 
H    -1.1177650    2.2705150   -3.9571901 
C     1.1949652    1.9374679   -2.5238166 
O    -6.2164989   -0.6896625   -2.4565723 
H    -6.8388597   -0.3579028   -1.7279825 
O     1.2509024    3.1419482   -3.2167113 
N    -0.3669361    1.1327443   -0.7969389 
H    -0.1173683    0.2886637   -2.7219921 
H    -0.5585949    2.0626145   -0.3539259 
H    -1.2001270    0.5220043   -0.6247470 
N     2.3963758    1.2645482   -2.0833426 
C     3.7578268    1.8598503   -2.1247377 
H     2.2924157    0.2515740   -1.8454923 
C     3.8751229    3.2404540   -2.7913460 
O     4.0622692    3.3387101   -4.1675222 
O     3.8234023    4.4172130   -2.0383294 
H     3.5394612    4.2414416   -1.0866409 
C     4.7217247    0.8274732   -2.7577494 
H     4.0781120    2.0049329   -1.0701633 
C     6.1754320    1.2195412   -2.5819047 
H     4.4653557    0.6854719   -3.8299418 
H     4.5777814   -0.1631784   -2.2730259 
C     7.0170441    1.6962413   -3.5163306 
C     6.8147912    1.9391043   -4.8377717 
C     7.8521438    2.4307584   -5.5741327 
C     9.0644563    2.6674475   -4.9885093 
C     9.2468839    2.4144150   -3.6618879 
C     8.2051675    1.9297697   -2.9536929 
H     5.8547325    1.7590717   -5.3102578 
H     7.7112058    2.6399326   -6.6318372 
H     9.8849863    3.0620043   -5.5824270 
H    10.2017959    2.5980789   -3.1814720 
N     8.1886301    1.6020019   -1.5718054 
C     6.8385824    1.1507287   -1.4135220 
H     8.9560802    1.6691568   -0.8648265 
H     6.4152728    0.8038208   -0.4741704 
