48
Energy =
C     0.7602740    1.1079548    3.9927809 
C     0.6285400    0.5268436    2.7734559 
C     1.2105771    0.3822616    5.0505855 
C     1.5277712   -0.9204859    4.8804622 
C     1.4005234   -1.5059284    3.6636679 
C     0.9510335   -0.7848258    2.5984868 
H     0.2776439    1.1244958    1.9358736 
H     1.8869666   -1.4874746    5.7317777 
H     1.6631117   -2.5535112    3.5482287 
H     0.5088115    2.1558524    4.1171079 
C     0.8087955   -1.4356623    1.2356469 
C     2.0738289   -1.3284443    0.3472467 
H    -0.0557189   -0.9850156    0.6990321 
H     0.5486578   -2.5096507    1.3627788 
C     2.3774863    0.1010848   -0.0814050 
O     1.3548842    0.9480237    6.3211532 
H     1.1180593    1.9337349    6.3605971 
O     2.8632904    1.0332109    0.8290757 
N     3.2388789   -1.9651392    0.9838596 
H     1.8596383   -1.8858955   -0.5931367 
H     3.5466958   -1.3970067    1.8100721 
H     2.9865630   -2.9213430    1.3262409 
N     2.2384442    0.4857717   -1.4545176 
C     3.4869046    0.8177489   -2.1662994 
H     1.2917047    0.4817766   -1.8962355 
C     3.2168172    1.6604039   -3.4089232 
O     3.8151755    2.9076854   -3.5302499 
O     2.4123485    1.1988805   -4.4537828 
H     2.0226448    0.2905674   -4.2551619 
C     4.2448248   -0.4863463   -2.5041697 
H     4.1258149    1.4615170   -1.5116363 
C     5.6318484   -0.1932774   -3.0280511 
H     3.6769311   -1.0873117   -3.2471280 
H     4.3321675   -1.1256839   -1.5982438 
C     6.7330605    0.0323964   -2.2951254 
C     6.8973841    0.0266070   -0.9470616 
C     8.1340904    0.3066216   -0.4448153 
C     9.1743119    0.5889305   -1.2869152 
C     8.9833843    0.5946234   -2.6371204 
C     7.7515083    0.3109809   -3.1098995 
H     6.0700054   -0.1877297   -0.2755406 
H     8.2912463    0.3105736    0.6311411 
H    10.1557151    0.8157957   -0.8781535 
H     9.7949803    0.8254137   -3.3185924 
N     7.3365365    0.2862877   -4.4688036 
C     5.9459117   -0.0377167   -4.3259811 
H     7.8977675    0.4520967   -5.3356225 
H     5.2350683   -0.0975378   -5.1497970 
