48
Energy =
C     2.2396603   -2.8648287   -2.2080572 
C     1.4763351   -2.0519305   -1.4347532 
C     1.7252163   -3.4059013   -3.3443593 
C     0.4482023   -3.1322363   -3.6963675 
C    -0.3203968   -2.3223271   -2.9244826 
C     0.1905002   -1.7744390   -1.7883948 
H     1.9021837   -1.6107382   -0.5360918 
H     0.0501749   -3.5690452   -4.6054643 
H    -1.3424037   -2.1103752   -3.2263990 
H     3.2621872   -3.0778765   -1.9169472 
C    -0.6498249   -0.8436209   -0.9357927 
C    -0.4841734    0.6511421   -1.3094291 
H    -0.3709922   -0.9756324    0.1340536 
H    -1.7222780   -1.1291817   -1.0001140 
C     0.9720745    1.0888627   -1.2952851 
O     2.4867441   -4.2432270   -4.1662068 
H     3.4243770   -4.4159433   -3.8220472 
O     1.6321661    1.1143468   -0.0671319 
N    -1.1510156    0.9518181   -2.5892874 
H    -0.9659160    1.2637582   -0.5116172 
H    -0.7038541    0.4021229   -3.3610555 
H    -2.1570795    0.6668557   -2.5437045 
N     1.7270405    1.1116929   -2.5237951 
C     3.1900025    1.2256186   -2.3258894 
H     1.3728313    1.9346959   -3.0679870 
C     3.6254856    2.6585181   -1.9992092 
O     3.5544913    3.6377213   -2.9836133 
O     4.0971705    3.0187111   -0.7376585 
H     3.8770853    2.3207467   -0.0418950 
C     3.8693142    0.6936180   -3.6049648 
H     3.5164493    0.5748918   -1.4825467 
C     5.3530079    0.4659713   -3.4078937 
H     3.6788057    1.3832358   -4.4567251 
H     3.3961504   -0.2744748   -3.8874240 
C     6.3586895    1.2943592   -3.7366862 
C     6.3301765    2.5075804   -4.3463371 
C     7.5116857    3.1530575   -4.5631905 
C     8.6922149    2.5828718   -4.1753304 
C     8.6983004    1.3629059   -3.5675316 
C     7.5163221    0.7443059   -3.3628085 
H     5.3973170    2.9678142   -4.6562068 
H     7.5121575    4.1290274   -5.0432589 
H     9.6291006    3.1062650   -4.3496010 
H     9.6260163    0.8978624   -3.2517651 
N     7.3059658   -0.5188728   -2.7473319 
C     5.8781220   -0.6207453   -2.8144828 
H     8.0069734   -1.1885043   -2.3544827 
H     5.3029485   -1.4593479   -2.4301469 
