48
Energy =
C    -0.1393029   -4.5352424   -5.0155430 
C    -0.3446098   -3.3591066   -4.3676238 
C    -0.0390180   -4.5595972   -6.3708763 
C    -0.1422560   -3.4063454   -7.0688268 
C    -0.3451578   -2.2287165   -6.4256669 
C    -0.4483318   -2.1967914   -5.0675812 
H    -0.4064623   -3.3472700   -3.2818347 
H    -0.0574235   -3.4380332   -8.1495393 
H    -0.4191581   -1.3127924   -7.0060080 
H    -0.0489675   -5.4551602   -4.4477339 
C    -0.6736921   -0.8777956   -4.3500999 
C     0.6160782   -0.1801215   -3.8363414 
H    -1.3781100   -1.0266484   -3.5021410 
H    -1.1943880   -0.1754198   -5.0385697 
C     1.1227563   -0.7412421   -2.5105073 
O     0.1702372   -5.7533973   -7.0685682 
H     0.2501348   -6.5706848   -6.4738488 
O     1.4081517   -2.0978271   -2.3882497 
N     1.6777676   -0.1728705   -4.8577127 
H     0.3312178    0.8747125   -3.6290990 
H     1.9918682   -1.1543892   -5.0522003 
H     1.3091899    0.2317076   -5.7499298 
N     1.2429633    0.0843236   -1.3362507 
C     2.3776962    1.0460218   -1.3843543 
H     1.4004887   -0.5760823   -0.5393032 
C     2.0490630    2.2906524   -2.2107461 
O     3.0131667    2.8595730   -3.0342605 
O     0.8212346    2.9403798   -2.0823125 
H     0.2214006    2.4653641   -1.4232323 
C     3.7221962    0.3783207   -1.8013643 
H     2.5109481    1.4580886   -0.3595234 
C     4.2341148   -0.5841784   -0.7520253 
H     4.5004558    1.1571006   -1.9602525 
H     3.6208648   -0.1295960   -2.7880351 
C     4.8187200   -0.2596098    0.4127699 
C     5.1080375    0.9620281    0.9310521 
C     5.7154802    1.0211079    2.1508888 
C     6.0232230   -0.1280062    2.8256990 
C     5.7265057   -1.3434367    2.2838812 
C     5.1251276   -1.3754293    1.0762672 
H     4.8695071    1.8764088    0.3951738 
H     5.9578741    1.9871471    2.5879825 
H     6.5083159   -0.0728473    3.7974436 
H     5.9658256   -2.2648541    2.8045295 
N     4.7384854   -2.5263318    0.3401589 
C     4.1698009   -1.9252794   -0.8317387 
H     4.8425712   -3.5392100    0.5808815 
H     3.7499750   -2.4850109   -1.6652392 
