48
Energy =
C     0.1550725   -3.2638582   -4.5895139 
C    -0.0855728   -2.0611797   -4.0090317 
C     1.3779391   -3.5356416   -5.1169574 
C     2.3551693   -2.6034670   -5.0555146 
C     2.1210061   -1.3991306   -4.4737831 
C     0.8954507   -1.1182432   -3.9509705 
H    -1.0702054   -1.8558202   -3.5957236 
H     3.3309526   -2.8408137   -5.4692526 
H     2.9188092   -0.6623452   -4.4297590 
H    -0.6334291   -4.0077135   -4.6342996 
C     0.6186660    0.2266152   -3.3119126 
C     0.6204444    0.1541125   -1.7662547 
H    -0.3731638    0.5889478   -3.6634585 
H     1.3580957    0.9848890   -3.6552173 
C     2.0121693   -0.0785967   -1.2112621 
O     1.6549517   -4.7617837   -5.7275400 
H     0.8776621   -5.4131990   -5.7283203 
O     2.2790923   -1.2764577   -0.5508154 
N     0.0279227    1.3776692   -1.1987487 
H     0.0153205   -0.7201659   -1.4324926 
H     0.4458097    2.2236839   -1.6540738 
H    -0.9979693    1.3965441   -1.4088915 
N     3.0327420    0.9290593   -1.3636757 
C     4.3575069    0.5345037   -0.8117816 
H     2.6804061    1.7429791   -0.8072548 
C     5.3253652    1.7106352   -0.8662574 
O     6.0684927    2.0382701    0.2594236 
O     5.5021110    2.4668336   -2.0246198 
H     4.9179435    2.1174493   -2.7682214 
C     5.0084626   -0.6606501   -1.6017685 
H     4.2388020    0.3386876    0.2904838 
C     5.2214284   -1.9831258   -2.3123500 
H     4.7511350   -1.3117961   -0.7351924 
H     4.5725789   -0.3109759   -2.5644370 
C     6.3207521   -2.3354032   -2.9684479 
C     7.4876328   -1.6605303   -3.1197286 
C     8.4733531   -2.2344571   -3.8655119 
C     8.2754923   -3.4565655   -4.4452865 
C     7.0906205   -4.1105113   -4.2801811 
C     6.1287441   -3.5272811   -3.5317793 
H     7.6389599   -0.6867967   -2.6599724 
H     9.4189821   -1.7161002   -4.0010432 
H     9.0635149   -3.9075424   -5.0424440 
H     6.9152749   -5.0771223   -4.7411697 
N     4.8292605   -4.0633279   -3.2718601 
C     4.3230623   -2.9764074   -2.4662036 
H     4.9545559   -4.8943275   -2.6457788 
H     3.3153394   -2.9453078   -2.0455636 
