48
Energy =
C    -2.8918543    1.4141143   -1.5183916 
C    -1.6834457    1.2652327   -2.1169544 
C    -3.6674159    2.4937536   -1.8041186 
C    -3.2246682    3.4206994   -2.6838664 
C    -2.0151879    3.2785898   -3.2829354 
C    -1.2392731    2.1944309   -3.0080267 
H    -1.0672326    0.4058777   -1.8664178 
H    -3.8502760    4.2804028   -2.8984183 
H    -1.6740947    4.0384876   -3.9813031 
H    -3.2330646    0.6706558   -0.8064766 
C     0.1174252    2.0464516   -3.6616978 
C     1.2253020    2.7960002   -2.8756913 
H     0.0594429    2.4412628   -4.7002467 
H     0.3874383    0.9709364   -3.7606770 
C     1.5148360    2.1366460   -1.5459678 
O    -4.9206613    2.6749587   -1.2098766 
H    -5.1687661    1.9536348   -0.5414091 
O     0.6717276    2.3488468   -0.4620889 
N     2.4516985    2.8812062   -3.6949196 
H     0.8892156    3.8282789   -2.6175623 
H     2.7155128    1.9155453   -4.0056407 
H     2.2021520    3.3539488   -4.5981475 
N     2.4775085    1.0838143   -1.4733417 
C     3.9098533    1.4368255   -1.5929239 
H     2.1224733    0.1039207   -1.4568926 
C     4.2034541    2.8662720   -2.1208864 
O     3.4387458    3.5359621   -3.1207947 
O     5.3194875    3.5554075   -1.6361319 
H     5.8443461    3.0307617   -0.9539585 
C     4.6597443    0.3767715   -2.4349948 
H     4.3253225    1.4100936   -0.5622089 
C     4.6375259   -0.9922564   -1.7895538 
H     5.7232490    0.6838493   -2.5567216 
H     4.2426178    0.3294094   -3.4607370 
C     3.8451852   -2.0297178   -2.1096279 
C     2.8900726   -2.1375573   -3.0707153 
C     2.2128418   -3.3159709   -3.1822545 
C     2.4946548   -4.3570948   -2.3419084 
C     3.4553679   -4.2259789   -1.3837382 
C     4.1128548   -3.0509084   -1.2935769 
H     2.6577384   -1.3131615   -3.7371349 
H     1.4445823   -3.4282115   -3.9433780 
H     1.9501060   -5.2931435   -2.4370709 
H     3.6892371   -5.0410366   -0.7073205 
N     5.1329087   -2.7077381   -0.3665302 
C     5.4142548   -1.3571712   -0.7544162 
H     5.5606465   -3.2864369    0.3923199 
H     6.1505176   -0.7202068   -0.2697077 
