48
Energy =
C     0.8699655    0.3788181   -5.7635570 
C     0.0666360    1.0894148   -4.9320910 
C     1.9995426    0.9424784   -6.2693508 
C     2.3159340    2.2156067   -5.9419581 
C     1.5184507    2.9295043   -5.1086416 
C     0.3843860    2.3711921   -4.6020280 
H    -0.8283495    0.6234400   -4.5277279 
H     3.2208377    2.6524764   -6.3497781 
H     1.7994361    3.9456651   -4.8420643 
H     0.6084299   -0.6425320   -6.0189540 
C    -0.4819541    3.1458705   -3.6321195 
C    -0.1971835    2.7452566   -2.1672765 
H    -1.5526012    2.9593569   -3.8685350 
H    -0.3205903    4.2410288   -3.7563266 
C     1.2756382    2.9316582   -1.8089634 
O     2.8534058    0.2356323   -7.1213686 
H     2.5408141   -0.7069641   -7.3278011 
O     1.7928918    4.2215006   -1.8334910 
N    -1.0641521    3.5151874   -1.2621316 
H    -0.4414026    1.6667818   -2.0367744 
H    -0.8561920    4.5399883   -1.3508026 
H    -2.0692520    3.3723204   -1.5184178 
N     2.1487636    1.7776862   -1.7815023 
C     3.6191085    1.8322715   -1.5769698 
H     1.7168244    0.8496256   -1.9922441 
C     4.2333181    3.2097506   -1.2792666 
O     4.5851324    3.5218774    0.0294484 
O     4.5478928    4.1224086   -2.2910590 
H     4.0339146    3.9145226   -3.1321501 
C     4.3042540    1.1129983   -2.7638406 
H     3.8377251    1.2397836   -0.6596986 
C     5.7810866    0.8968237   -2.5143117 
H     4.1592058    1.6881484   -3.7025237 
H     3.8192465    0.1286540   -2.9435463 
C     6.3413741   -0.1157510   -1.8339752 
C     5.7624724   -1.1898617   -1.2379234 
C     6.5656766   -2.0827753   -0.5912472 
C     7.9188570   -1.8892145   -0.5474866 
C     8.4770986   -0.8006733   -1.1495057 
C     7.6618355    0.0665688   -1.7855055 
H     4.6880238   -1.3420979   -1.2664271 
H     6.1276261   -2.9512013   -0.1053176 
H     8.5520453   -2.6035521   -0.0273331 
H     9.5475700   -0.6284557   -1.1186820 
N     8.0345189    1.2624093   -2.4554380 
C     6.7552317    1.7437306   -2.8913893 
H     8.9852993    1.6748114   -2.5961647 
H     6.5944129    2.6855605   -3.4150245 
