48
Energy =
C     3.3577095    5.1388882    0.1938003 
C     2.3353835    4.3939486   -0.2994976 
C     3.9222609    6.1153006   -0.5667287 
C     3.4738661    6.3234174   -1.8258638 
C     2.4516964    5.5827662   -2.3234243 
C     1.8627344    4.6230772   -1.5564602 
H     1.9022922    3.6074962    0.3158835 
H     3.9488341    7.0858726   -2.4330390 
H     2.1140899    5.7607027   -3.3406797 
H     3.7237035    4.9526271    1.1977969 
C     0.7032147    3.8124300   -2.1030021 
C     1.1760857    2.6620163   -3.0215900 
H     0.0286406    4.4886104   -2.6728156 
H     0.0890855    3.3956829   -1.2725224 
C     2.0010321    1.6217889   -2.2793983 
O     4.9524916    6.9243438   -0.0740256 
H     5.3034771    6.6355102    0.8323580 
O     1.7868233    1.3688723   -0.9269824 
N     0.0149515    2.0352826   -3.6770610 
H     1.8522732    3.0800629   -3.8051108 
H    -0.6440079    1.6614020   -2.9509294 
H    -0.5060431    2.7454861   -4.2438002 
N     3.0630120    0.9407079   -2.9526069 
C     4.4329180    1.3495499   -2.5929272 
H     2.8253833    0.1849052   -3.6332042 
C     4.6991146    2.8044556   -2.9655299 
O     5.2475643    3.6585845   -2.0207180 
O     4.3953456    3.3128517   -4.2304589 
H     4.0900946    2.5804260   -4.8560873 
C     5.4375659    0.3915108   -3.2642679 
H     4.5549063    1.2820339   -1.4853005 
C     6.8500906    0.6453206   -2.7858725 
H     5.3905546    0.5055454   -4.3700955 
H     5.1550583   -0.6609544   -3.0441919 
C     7.4365019    0.1272640   -1.6953925 
C     6.9520888   -0.7514559   -0.7802115 
C     7.7581473   -1.1151685    0.2582760 
C     9.0194449   -0.5979452    0.3679198 
C     9.4818315    0.2879616   -0.5596265 
C     8.6669769    0.6294805   -1.5797658 
H     5.9474147   -1.1555784   -0.8597560 
H     7.3939261   -1.8163110    1.0050584 
H     9.6542454   -0.8896051    1.2005714 
H    10.4761122    0.7143991   -0.4830384 
N     8.9440674    1.5439945   -2.6310583 
C     7.7092657    1.5048775   -3.3610042 
H     9.8155855    2.0885357   -2.8242362 
H     7.4786889    2.1277877   -4.2247927 
