48
Energy =
C     3.5916430    0.5930899    5.0509424 
C     3.0844625   -0.1693159    4.0457647 
C     4.1361681    1.8124197    4.7798646 
C     4.1717798    2.2596882    3.5036482 
C     3.6658699    1.4946041    2.5067360 
C     3.1078108    0.2875839    2.7642796 
H     2.6653186   -1.1451770    4.2757753 
H     4.6073864    3.2297118    3.2910789 
H     3.6368795    1.7936686    1.3674319 
H     3.5652025    0.2236707    6.0703955 
C     2.5965216   -0.5656783    1.6100464 
C     1.8754430    0.2451126    0.4877157 
H     1.8927288   -1.3292367    2.0081393 
H     3.4579780   -1.1178657    1.1715034 
C     2.8357777    1.1242864   -0.3369362 
O     4.6648864    2.6205575    5.7911818 
H     4.6026563    2.2146278    6.7183099 
O     3.6185847    2.0871544    0.3055207 
N     1.1103320   -0.6772973   -0.3686414 
H     1.1646757    0.9643214    0.9614924 
H     1.7319469   -1.4609562   -0.6783533 
H     0.3352892   -1.1089206    0.1881951 
N     2.7207174    1.2000873   -1.7607407 
C     3.9734854    1.3186180   -2.5275202 
H     1.7843456    1.0976661   -2.2110832 
C     3.9058389    2.5271571   -3.4530561 
O     3.7306078    2.3535464   -4.8224576 
O     3.9743513    3.8242173   -2.9469115 
H     4.0150452    3.8213754   -1.9350405 
C     4.2465251    0.0042643   -3.2925236 
H     4.8394788    1.5177768   -1.8547049 
C     4.3822398   -1.1874727   -2.3657211 
H     5.1945283    0.1044640   -3.8674002 
H     3.4418670   -0.1499484   -4.0405773 
C     3.6814024   -2.3349400   -2.4025382 
C     2.6761042   -2.7236520   -3.2305130 
C     2.1123904   -3.9508174   -3.0368410 
C     2.5553112   -4.7637140   -2.0309628 
C     3.5655143   -4.3551146   -1.2128639 
C     4.1079236   -3.1381076   -1.4248191 
H     2.3156649   -2.0854099   -4.0294736 
H     1.3075418   -4.2849854   -3.6875594 
H     2.1030210   -5.7418049   -1.8847951 
H     3.9314013   -4.9881598   -0.4112257 
N     5.1537928   -2.5286366   -0.6844421 
C     5.2741092   -1.2718365   -1.3618808 
H     5.6856819   -2.8903651    0.1408680 
H     5.9938227   -0.4996803   -1.0961401 
