48
Energy =
C     4.4828247   -2.8249527   -0.5153396 
C     3.5010591   -2.2814117    0.2486017 
C     5.7881065   -2.5801618   -0.2251047 
C     6.1026737   -1.7942179    0.8296667 
C     5.1251720   -1.2497926    1.5982049 
C     3.8172757   -1.4945903    1.3139073 
H     2.4578553   -2.4624576   -0.0086443 
H     7.1483373   -1.6037644    1.0472242 
H     5.3986056   -0.6147786    2.4370973 
H     4.2218419   -3.4473885   -1.3648086 
C     2.7244406   -0.8493976    2.1377345 
C     2.4592119    0.6049970    1.6888339 
H     3.0167565   -0.8649300    3.2110152 
H     1.7812640   -1.4382081    2.0642816 
C     2.0574043    0.6855880    0.2177208 
O     6.8224785   -3.1182830   -0.9960457 
H     6.5065459   -3.6977970   -1.7660109 
O     1.1007472   -0.1917196   -0.2840803 
N     1.4263454    1.2118008    2.5421351 
H     3.3997660    1.1912570    1.8040043 
H     0.5231755    0.6889283    2.4280851 
H     1.7030958    1.1446110    3.5501173 
N     2.4829659    1.7804908   -0.6083864 
C     3.8775029    1.5957291   -1.0808854 
H     2.3820292    2.6473676   -0.0296527 
C     4.5414105    2.9176756   -1.4597822 
O     5.8867918    3.0994721   -1.1688550 
O     3.8507515    3.9459260   -2.0989342 
H     2.9165398    3.6571512   -2.3536707 
C     3.9096047    0.5853220   -2.2504013 
H     4.5224095    1.1851680   -0.2693515 
C     3.1183940    1.0518487   -3.4525307 
H     3.4897795   -0.3852791   -1.9112410 
H     4.9624619    0.3730659   -2.5387551 
C     3.5835157    1.7244798   -4.5172722 
C     4.8425254    2.1480924   -4.7994759 
C     5.0500812    2.8384965   -5.9573260 
C     4.0083814    3.0942129   -6.8056757 
C     2.7516111    2.6643602   -6.4984995 
C     2.5721524    1.9824842   -5.3477679 
H     5.6685929    1.9649081   -4.1183898 
H     6.0476005    3.1957829   -6.2007647 
H     4.1811702    3.6500054   -7.7234737 
H     1.9122447    2.8671032   -7.1544069 
N     1.3504093    1.4726523   -4.8337726 
C     1.7919763    0.8914411   -3.5994544 
H     0.3897347    1.5099120   -5.2437471 
H     1.1385196    0.4146300   -2.8696532 
