48
Energy =
C     1.4262674    5.4474866   -2.9253984 
C     1.1176434    4.1512187   -2.6707489 
C     0.4575736    6.4005220   -2.8867737 
C    -0.8135151    6.0491927   -2.5900653 
C    -1.1262921    4.7555574   -2.3287703 
C    -0.1604387    3.7951425   -2.3640784 
H     1.9065934    3.4051394   -2.6927321 
H    -1.5762278    6.8187174   -2.5597829 
H    -2.1526311    4.4956750   -2.0870258 
H     2.4520770    5.7183995   -3.1517793 
C    -0.5035784    2.3481547   -2.0635420 
C    -0.3734953    1.9666523   -0.5676422 
H     0.1517270    1.6807201   -2.6640565 
H    -1.5402413    2.1325850   -2.4022281 
C     1.0670476    2.0108106   -0.0740492 
O     0.7388364    7.7449561   -3.1502831 
H     1.7214827    7.9298623   -3.3225172 
O     1.6277703    3.0945117    0.1456347 
N    -1.2654164    2.7751626    0.2789585 
H    -0.6967012    0.9061015   -0.4724098 
H    -0.9080553    3.7597872    0.3238751 
H    -2.2281205    2.7981640   -0.1284756 
N     1.8601148    0.8105721   -0.0460724 
C     3.2520621    0.9919568   -0.5004684 
H     1.4336936   -0.1037778    0.2196490 
C     3.6093230    2.4812249   -0.4880599 
O     4.8165539    2.9184697   -1.0246479 
O     2.8141954    3.3063736   -0.0152049 
H     2.3464655    3.1013091    0.8447649 
C     3.4104188    0.3630355   -1.9109310 
H     3.9508004    0.5194893    0.2246862 
C     3.9018217   -1.0756601   -1.8829361 
H     4.1226529    0.9759177   -2.5026706 
H     2.4424727    0.4010865   -2.4555377 
C     4.7551831   -1.6476272   -2.7542497 
C     5.4094873   -1.1132015   -3.8204291 
C     6.2248558   -1.9226837   -4.5556343 
C     6.3717147   -3.2403763   -4.2241669 
C     5.7029891   -3.7576987   -3.1558302 
C     4.9045603   -2.9369040   -2.4417693 
H     5.2990479   -0.0701367   -4.0965628 
H     6.7609345   -1.5174656   -5.4106764 
H     7.0228697   -3.8790064   -4.8158007 
H     5.8045792   -4.8023561   -2.8819840 
N     4.1157089   -3.2819273   -1.3146173 
C     3.4902676   -2.0274938   -1.0220872 
H     4.0165321   -4.2039856   -0.8315057 
H     2.7790748   -1.8866905   -0.2161622 
