48
Energy =
C     3.9620574    4.3121308    3.4820130 
C     4.2386829    3.3688396    2.5466310 
C     3.2838741    3.9762041    4.6115547 
C     2.8868397    2.6968387    4.7973519 
C     3.1608044    1.7491592    3.8653942 
C     3.8421731    2.0792339    2.7336116 
H     4.7804016    3.6548191    1.6480061 
H     2.3455040    2.4422043    5.7022670 
H     2.8286807    0.7275144    4.0310556 
H     4.2843204    5.3357439    3.3227371 
C     4.1351380    1.0301582    1.6830935 
C     3.1674935    1.1132573    0.4773345 
H     4.0996372    0.0085016    2.1239848 
H     5.1838077    1.1683411    1.3259077 
C     3.6123479    0.1673985   -0.6325280 
O     2.9808113    4.9235845    5.5941120 
H     3.3165729    5.8575948    5.3843324 
O     3.8151221   -1.1771983   -0.3414398 
N     1.7883124    0.8059646    0.8873122 
H     3.1961812    2.1458914    0.0617745 
H     1.7570988   -0.1357749    1.3479637 
H     1.4488396    1.5138158    1.5793357 
N     3.6433060    0.5816863   -2.0088959 
C     4.9440048    1.1909511   -2.3688213 
H     2.8466527    1.2377794   -2.1765888 
C     5.0977029    2.6205258   -1.8651725 
O     5.6653445    2.8472337   -0.6188889 
O     4.5769750    3.7016630   -2.5571435 
H     3.6072615    3.8134523   -2.3072275 
C     5.1858756    1.0416341   -3.8887394 
H     5.7711740    0.6198293   -1.8815694 
C     4.0479887    1.5469430   -4.7555922 
H     5.3289041   -0.0397595   -4.1084915 
H     6.1410552    1.5349131   -4.1677513 
C     3.9908251    2.7010047   -5.4417103 
C     4.8938232    3.7115506   -5.5298342 
C     4.5903083    4.7887020   -6.3095703 
C     3.4035835    4.8387606   -6.9867582 
C     2.5118529    3.8129308   -6.8847807 
C     2.8338526    2.7600898   -6.1040477 
H     5.8284863    3.6835666   -4.9780269 
H     5.2938960    5.6137438   -6.3867171 
H     3.1687540    5.7007854   -7.6055441 
H     1.5657884    3.8360940   -7.4142407 
N     2.0529210    1.5979574   -5.8687054 
C     2.9138017    0.8629900   -4.9893064 
H     1.1071373    1.3484099   -6.2371866 
H     2.6824567   -0.1152430   -4.5704492 
