48
 energy: -9.060759613814 gnorm: 0.000733045782 xtb: 6.6.0 (2ccbbd7)
C            0.61440933782409       -4.44606711887440       -2.01842945657107
C            1.67832331211031       -3.60403407485044       -2.24243732789781
C           -0.69397898231034       -3.96260544650513       -2.04846773603150
C           -0.88896239105629       -2.60679890701998       -2.30911076381824
C            0.18055909590976       -1.77409233597248       -2.53504933912147
C            1.48061883437270       -2.25591015919455       -2.50836054966981
H            2.68267756517159       -3.99055196368605       -2.21358215030938
H           -1.89559055544374       -2.22821401626677       -2.31784725152262
H            0.01848158815564       -0.72197691074027       -2.69849145117198
H            0.78069766829544       -5.48891520019810       -1.81564741270795
C            2.64898357257511       -1.34494533146507       -2.73984261519639
C            2.93936130322617       -0.37585930200009       -1.57607993793725
H            2.47723509060819       -0.77390228262219       -3.65763214982615
H            3.53611507001983       -1.95747068015572       -2.93383562070770
C            1.99580552596809        0.80689143916455       -1.58959969276577
O           -1.78427897825918       -4.78199049520000       -1.82615759058731
H           -1.48589346532668       -5.70038589332734       -1.64966426232632
O            0.85628293032344        0.60869650729237       -1.22136241189512
N            2.81596887497088       -1.02166998944119       -0.27941908301630
H            3.97147006437367       -0.00538815934147       -1.65709229235445
H            1.82636707171806       -1.05866859473868       -0.05661031479100
H            3.17287528526840       -1.96903632525698       -0.30859398034031
N            2.40873457530136        2.06126446645582       -2.00056151114214
C            3.81902494993165        2.45311889332868       -2.13499703818207
H            1.79549972240560        2.84093875064965       -1.77460674344460
C            3.94643404137937        3.94708993939350       -2.13598654894343
O            5.03200216898771        4.51153754518162       -1.53359473500074
O            2.97412254953324        4.67620701733435       -2.77948445336074
H            2.36178234125736        4.07383345591026       -3.26379211071648
C            4.48304774406840        1.85593169627832       -3.39463645425667
H            4.33131538449044        2.07765288034524       -1.23753653725165
C            5.86561672606726        1.33998479577441       -3.15795860223693
H            4.50709572042630        2.61204365317272       -4.18613718668917
H            3.85892904845197        1.04755929353518       -3.78627983593691
C            6.88432363023326        1.93934008622115       -2.35768585791959
C            6.93155242181039        3.10521485914436       -1.58238534976300
C            8.07771049809879        3.41391514860366       -0.91372926420522
C            9.20683754247502        2.58178482444989       -0.99040216286303
C            9.18989112384554        1.43637079513045       -1.73877621082066
C            8.01812098396530        1.10539238796134       -2.43190879740734
H            5.94183463635965        3.83609289228241       -1.53856193195222
H            8.11627682091128        4.31253267923649       -0.32080395396209
H           10.09959290453396        2.85309425727037       -0.45176335189445
H           10.04933671655816        0.79370301751848       -1.80514523010264
N            7.69607583625230        0.04173405440215       -3.25552261606853
C            6.40241835887432        0.19359872902104       -3.69050232751169
H            8.33504153889531       -0.71634788711800       -3.50194412855583
H            5.88876579656620       -0.49055414210703       -4.34615229017980
