48
Energy =
C    -2.4925127   -0.8816735    1.3787713 
C    -1.1814804   -0.6693358    1.0996360 
C    -3.2561637   -1.6341347    0.5420789 
C    -2.7014519   -2.1686678   -0.5695050 
C    -1.3910354   -1.9593200   -0.8536981 
C    -0.6214252   -1.2107400   -0.0167224 
H    -0.5829598   -0.0622038    1.7744916 
H    -3.3217469   -2.7648414   -1.2294532 
H    -0.9660207   -2.3920327   -1.7550614 
H    -2.9283194   -0.4464371    2.2715176 
C     0.8341293   -0.9541670   -0.3372624 
C     1.0531833    0.4445827   -0.9590820 
H     1.2292321   -1.7403820   -1.0164987 
H     1.4265547   -1.0351516    0.6019931 
C     2.5332663    0.7662930   -1.0684898 
O    -4.6105573   -1.8713475    0.7989684 
H    -4.9489104   -1.4374801    1.6509013 
O     3.0175235    1.6633887   -0.3606342 
N     0.3915754    0.5481215   -2.2683551 
H     0.6274144    1.2189991   -0.2765050 
H     0.6449181   -0.2724547   -2.8637794 
H    -0.6460998    0.5388275   -2.1387966 
N     3.3882306    0.0681370   -1.9980065 
C     4.5639157    0.8360803   -2.4492675 
H     3.1747154   -0.9017211   -2.3176462 
C     4.6614589    2.1552530   -1.6853379 
O     5.4835030    3.1809708   -2.1446221 
O     4.0081588    2.3081755   -0.6445645 
H     3.9486316    1.5382569   -0.0103401 
C     4.5082274    1.0318924   -3.9798718 
H     5.4852654    0.2702821   -2.1938825 
C     3.2058137    1.6559213   -4.4434940 
H     4.6696155    0.0522152   -4.4733616 
H     5.3541448    1.6785839   -4.3056110 
C     2.1743431    1.0313980   -5.0369313 
C     2.0217767   -0.2753322   -5.3802887 
C     0.8527135   -0.6598269   -5.9683089 
C    -0.1368680    0.2542660   -6.2007336 
C     0.0370507    1.5592160   -5.8479248 
C     1.2032323    1.9166734   -5.2709847 
H     2.7981875   -1.0081991   -5.1898563 
H     0.7062874   -1.6989775   -6.2523672 
H    -1.0667074   -0.0597037   -6.6680315 
H    -0.7389294    2.2968640   -6.0211570 
N     1.5745049    3.2119487   -4.8237584 
C     2.8826279    2.9539496   -4.2940515 
H     1.0443867    4.1114041   -4.8801212 
H     3.5116590    3.7015448   -3.8111997 
