48
Energy =
C     0.2392371   -0.8013506    0.3888703 
C     1.2974066    0.0369365    0.5203370 
C    -1.0251038   -0.3415347    0.5854408 
C    -1.2208678    0.9553666    0.9133819 
C    -0.1662210    1.7982325    1.0468246 
C     1.1020864    1.3455235    0.8453839 
H     2.2998304   -0.3522777    0.3675784 
H    -2.2337880    1.3093045    1.0685271 
H    -0.3473243    2.8344907    1.3177734 
H     0.4081562   -1.8409531    0.1288996 
C     2.2860266    2.2801012    0.9899674 
C     2.5803861    3.1232153   -0.2849432 
H     3.1854614    1.6897113    1.2667802 
H     2.1177592    2.9552749    1.8573211 
C     2.6798852    2.2846755   -1.5620010 
O    -2.1376812   -1.1798425    0.4624085 
H    -1.9084437   -2.1308431    0.1952603 
O     1.8533345    2.5523019   -2.6467797 
N     1.5965844    4.2144924   -0.4177910 
H     3.5902851    3.5903400   -0.1857642 
H     0.6619933    3.8330920   -0.7001317 
H     1.4854893    4.7426476    0.4786454 
N     3.5405826    1.1390974   -1.6500344 
C     4.9469670    1.2587649   -1.2156147 
H     3.1006544    0.2485376   -1.9713639 
C     5.6621793    2.4291914   -1.8778774 
O     6.2360016    3.4002551   -1.0685232 
O     5.7455171    2.5643973   -3.2601294 
H     5.1707543    1.8792236   -3.7278226 
C     5.6923220   -0.0687732   -1.4672193 
H     4.9795875    1.4641884   -0.1264098 
C     5.1214306   -1.1925111   -0.6290642 
H     6.7725605    0.0500125   -1.2229488 
H     5.6383042   -0.3317299   -2.5472580 
C     5.2627964   -1.3582394    0.6955732 
C     5.9698432   -0.6257382    1.5941218 
C     5.9332986   -0.9985126    2.9054987 
C     5.1989324   -2.0847268    3.2947218 
C     4.4985433   -2.8064461    2.3740171 
C     4.5530817   -2.4193723    1.0824778 
H     6.5580724    0.2344191    1.2861358 
H     6.4936826   -0.4304862    3.6446788 
H     5.1755311   -2.3759373    4.3422024 
H     3.9110761   -3.6706173    2.6658177 
N     3.8932698   -3.0199760   -0.0228641 
C     4.3140433   -2.1631796   -1.0926690 
H     3.2625584   -3.8544019   -0.0456112 
H     4.0027570   -2.2753875   -2.1293123 
