48
Energy =
C     0.9360783   -3.8212205    0.1851376 
C     0.5210159   -2.8143587   -0.6251823 
C     1.0968908   -3.6030128    1.5178684 
C     0.8425503   -2.3771752    2.0301623 
C     0.4280457   -1.3668654    1.2242603 
C     0.2566362   -1.5828571   -0.1078895 
H     0.4185261   -2.9915427   -1.6958087 
H     0.9797082   -2.2143419    3.0935569 
H     0.2397213   -0.3853991    1.6521986 
H     1.1463356   -4.7984232   -0.2368193 
C    -0.1645728   -0.4494587   -1.0165542 
C     1.0490219    0.3783048   -1.4931914 
H    -0.8787092    0.2120371   -0.4785980 
H    -0.7122315   -0.8474634   -1.9010644 
C     2.0505204   -0.4773557   -2.2550713 
O     1.5279032   -4.6169923    2.3789578 
H     1.6843649   -5.5071398    1.9190994 
O     1.6368410   -1.1849180   -3.3796511 
N     0.5913894    1.5018752   -2.3241045 
H     1.5751769    0.7914842   -0.6015853 
H     0.0681789    1.1357925   -3.1561604 
H    -0.0605381    2.1085500   -1.7740246 
N     3.2930156   -0.8519081   -1.6480715 
C     4.4547433    0.0287853   -1.8533955 
H     3.3293615   -1.7168801   -1.0643795 
C     4.3061705    1.3357175   -1.0751858 
O     4.0778972    2.5330515   -1.7445871 
O     4.3480067    1.3508210    0.3191093 
H     4.4673680    0.4231278    0.7000857 
C     4.6961176    0.2298490   -3.3690309 
H     5.3467838   -0.4825848   -1.4275511 
C     6.0757339    0.7833657   -3.6509754 
H     3.9120298    0.8982901   -3.7969579 
H     4.5736776   -0.7429771   -3.8956569 
C     7.2201884    0.0846568   -3.7096890 
C     7.4338238   -1.2482553   -3.5633353 
C     8.7121041   -1.7138167   -3.6620467 
C     9.7455432   -0.8501197   -3.9002489 
C     9.5067268    0.4849503   -4.0406935 
C     8.2332566    0.9204417   -3.9410897 
H     6.6149811   -1.9352887   -3.3707579 
H     8.9104001   -2.7770231   -3.5495350 
H    10.7617770   -1.2288042   -3.9759704 
H    10.3150733    1.1841360   -4.2258165 
N     7.7724006    2.2600390   -4.0422696 
C     6.3638911    2.0842625   -3.8359200 
H     8.3144231    3.1360167   -4.2225678 
H     5.6389535    2.8976073   -3.8068153 
