48
Energy =
C     3.5255279    4.1852599    0.8136456 
C     2.2660505    3.6808888    0.8115185 
C     4.5690468    3.4168688    1.2251726 
C     4.3436153    2.1509765    1.6427341 
C     3.0870205    1.6389440    1.6374037 
C     2.0386092    2.4018869    1.2189739 
H     1.4441381    4.3025893    0.4648125 
H     5.1854959    1.5472592    1.9641878 
H     2.9312772    0.6090199    1.9496709 
H     3.6983205    5.1991427    0.4676327 
C     0.6420899    1.8192954    1.1577117 
C     0.1788857    1.5613811   -0.2956978 
H    -0.0631230    2.5230755    1.6513480 
H     0.5904666    0.8664944    1.7316584 
C     1.1521919    0.6790895   -1.0646433 
O     5.8822752    3.8954160    1.2110908 
H     5.9717497    4.8457041    0.8648566 
O     1.6050173   -0.5172635   -0.5126717 
N    -1.1690138    0.9735331   -0.2921174 
H     0.1322726    2.5345637   -0.8374051 
H    -1.1542617    0.0522461    0.2092489 
H    -1.8322622    1.6036105    0.2172628 
N     1.7652249    1.1649701   -2.2642258 
C     3.1925514    1.5185204   -2.1907539 
H     1.1911290    1.2713131   -3.1319612 
C     3.4589414    2.8907147   -2.7999563 
O     2.6992703    3.3294375   -3.8768960 
O     4.4986983    3.7049075   -2.3465413 
H     5.0622112    3.2581141   -1.6367090 
C     4.0018441    0.4141877   -2.8947329 
H     3.5120723    1.5876359   -1.1287100 
C     5.4576537    0.4732357   -2.4957892 
H     3.8895940    0.5024938   -3.9995435 
H     3.5884419   -0.5831323   -2.6208772 
C     5.9877753    0.0049720   -1.3555207 
C     5.3983514   -0.6739937   -0.3376241 
C     6.1620948   -1.0179911    0.7385107 
C     7.4849123   -0.6734597    0.7848018 
C     8.0526090    0.0144606   -0.2468555 
C     7.2782791    0.3348549   -1.3046660 
H     4.3445927   -0.9404610   -0.3688227 
H     5.7155797   -1.5665887    1.5644214 
H     8.0865284   -0.9461886    1.6482478 
H     9.0978210    0.3035104   -0.2218907 
N     7.6599045    1.0677357   -2.4605324 
C     6.4183856    1.1209921   -3.1772615 
H     8.5951024    1.4597857   -2.7167006 
H     6.2631231    1.6685799   -4.1065180 
