48
 energy: -9.287520353697 gnorm: 0.000594599535 xtb: 6.6.0 (2ccbbd7)
C           -3.30194862232712        2.79332444550516        1.42164072272836
C           -1.96786511170552        2.75060477091437        1.09244127664170
C           -3.83374961890861        1.89349394346914        2.34579626332803
C           -2.97846223649368        0.95352994700672        2.92009720238906
C           -1.64568676289171        0.91766564079130        2.58622812086751
C           -1.11937198816438        1.81835815964478        1.67146317457941
H           -1.56794515971516        3.44517682417588        0.37366793858230
H           -3.38900872384278        0.25865977514787        3.63063205352933
H           -0.99767014596560        0.18420132512650        3.03447771521740
H           -3.94978516054561        3.52171030580498        0.96788601097430
C            0.32081391970699        1.75497330618010        1.26968551050361
C            0.53101725482255        1.07870486330679       -0.08640232023219
H            0.89730096792350        1.21242998307898        2.02475172322686
H            0.74123980546304        2.76572400521198        1.24792702837052
C            1.98797126566616        1.12106811371983       -0.47006667684356
O           -5.16921559349564        1.91054804440856        2.70072857254950
H           -5.63791676919672        2.61935501480609        2.20938744168857
O            2.78357606116385        0.49442749120582        0.19753252400129
N            0.08339375697857       -0.30409656677929       -0.08857147662491
H           -0.04890270347081        1.61674927279681       -0.85152555633790
H            0.72807677551527       -0.84900529522915        0.46852286349323
H           -0.83544391139866       -0.38200513534852        0.32863058568537
N            2.35761198428255        1.86710595222978       -1.56666450692352
C            3.70927442664266        1.77806512061815       -2.08665391707583
H            1.66909042884429        2.17644157437945       -2.25442231043986
C            3.87477694771738        2.76787418204251       -3.22050891146951
O            3.24398487504133        2.55523596488968       -4.23354205558069
O            4.72165692280813        3.81230567082890       -3.03420151470748
H            5.11080446426251        3.80201365362045       -2.13291334496990
C            4.02068325282994        0.35422723830200       -2.54423103923463
H            4.38334465448094        2.04200592052233       -1.26089177757776
C            5.45955054895431        0.11428075511532       -2.86111279401820
H            3.40628216146328        0.12716183807875       -3.42063639107612
H            3.70374072885605       -0.34094850015962       -1.75938369063801
C            6.17417806858819        0.54068595801856       -4.02141304061630
C            5.81130704267320        1.29296193058507       -5.15236952376701
C            6.75078156149264        1.53129451677256       -6.11562207838771
C            8.06037047311390        1.04117910049117       -5.98910717449789
C            8.44157921302342        0.31656235841113       -4.89320886408519
C            7.49297964748383        0.06294543059783       -3.89436632761065
H            4.82167881111683        1.70916638096238       -5.21912000306601
H            6.48664295420881        2.11638139956664       -6.98099819593212
H            8.77786808741609        1.24781368748678       -6.76585870082456
H            9.44405333983388       -0.05650045754475       -4.78401287206775
N            7.57540503102345       -0.61646096800715       -2.69215408263177
C            6.34950877787423       -0.57656852659908       -2.07620349410160
H            8.41843925297486       -1.07117719756003       -2.33693628511921
H            6.12273506097158       -1.02781976673889       -1.12356890931206
