48
Energy =
C     3.2737444    7.7894372    1.8992022 
C     2.8404073    6.9506770    0.9243827 
C     4.6030310    7.9025944    2.1629793 
C     5.4905629    7.1744466    1.4480577 
C     5.0634970    6.3335701    0.4719390 
C     3.7337564    6.2204651    0.2023209 
H     1.7734545    6.8688725    0.7285264 
H     6.5478942    7.2739037    1.6694217 
H     5.7953974    5.7546072   -0.0875693 
H     2.5543407    8.3682930    2.4685548 
C     3.2481776    5.2717436   -0.8682195 
C     2.7332706    3.9357073   -0.2722811 
H     4.0484260    5.0821446   -1.6230825 
H     2.4398942    5.7591784   -1.4611315 
C     1.9618825    3.1384621   -1.3260659 
O     5.0826197    8.7555450    3.1620638 
H     4.3564784    9.2706091    3.6479565 
O     0.7759182    3.6947140   -1.8024880 
N     3.8384064    3.1792729    0.3476989 
H     1.9652768    4.1554012    0.5071224 
H     4.7105766    3.2454163   -0.2289556 
H     4.0658426    3.6020985    1.2790651 
N     2.2619349    1.7710280   -1.6733894 
C     3.5859043    1.5640987   -2.3261886 
H     1.4844781    1.4737947   -2.3016930 
C     4.2421198    2.7902906   -2.9763216 
O     3.4845619    3.7885248   -3.5686730 
O     5.6169254    2.9932658   -2.9079232 
H     6.1117114    2.1794558   -2.5732578 
C     3.5865246    0.3189763   -3.2542134 
H     4.2796154    1.2946038   -1.5010723 
C     2.5494774    0.2707139   -4.3716113 
H     3.4341560   -0.5628799   -2.5952477 
H     4.5927604    0.2055418   -3.7154043 
C     2.0898902   -0.8544390   -4.9507951 
C     2.3867384   -2.1546742   -4.6848506 
C     1.7832330   -3.1249641   -5.4294435 
C     0.9052103   -2.7884596   -6.4213913 
C     0.6269769   -1.4791592   -6.6763130 
C     1.2342031   -0.5377840   -5.9240215 
H     3.0889355   -2.4309651   -3.9047440 
H     2.0038657   -4.1717954   -5.2349175 
H     0.4299916   -3.5675531   -7.0121279 
H    -0.0619806   -1.1944055   -7.4643707 
N     1.0976047    0.8679360   -6.0414528 
C     1.9920121    1.3191955   -5.0136435 
H     0.5060332    1.4270678   -6.6987261 
H     2.1780908    2.3665111   -4.8023203 
