48
Energy =
C    -4.1910069    1.7395044    0.2376615 
C    -3.1630589    0.8567349    0.1636103 
C    -3.9642761    3.0693812    0.0646979 
C    -2.7083968    3.5067304   -0.1825047 
C    -1.6768486    2.6284945   -0.2582593 
C    -1.8982901    1.2968827   -0.0817700 
H    -3.3605579   -0.2031641    0.2989560 
H    -2.5394155    4.5691459   -0.3198112 
H    -0.6725557    2.9981029   -0.4593783 
H    -5.1946030    1.3787416    0.4341071 
C    -0.7481524    0.3207807   -0.1837226 
C    -0.3826002    0.0130164   -1.6611204 
H    -0.9791959   -0.6225679    0.3579902 
H     0.1200842    0.7700612    0.3469582 
C     0.9677557   -0.6787250   -1.8183670 
O    -5.0021083    4.0048039    0.1345914 
H    -5.9112751    3.5975930    0.3231794 
O     1.4096593   -1.0236312   -3.0916281 
N    -1.4484243   -0.7849660   -2.2902878 
H    -0.2703716    0.9724888   -2.2189028 
H    -1.6544094   -1.6356291   -1.7162135 
H    -2.3255169   -0.2174649   -2.3545814 
N     1.9272514   -0.6818945   -0.7501126 
C     3.0081780    0.3251349   -0.7556344 
H     1.8297785   -1.3872975    0.0140916 
C     2.4985451    1.7524628   -0.9693618 
O     2.3822181    2.5945562    0.1292100 
O     2.1056977    2.2402826   -2.2177203 
H     2.1897026    1.5505092   -2.9498874 
C     4.1217899   -0.0803742   -1.7461272 
H     3.4607657    0.3386808    0.2619515 
C     4.7195713   -1.4191989   -1.3773662 
H     4.9199100    0.6935813   -1.7596634 
H     3.7247931   -0.1420370   -2.7821691 
C     5.6777887   -1.6494286   -0.4667411 
C     6.3654673   -0.7763033    0.3136608 
C     7.2956004   -1.2745710    1.1778086 
C     7.5198089   -2.6218290    1.2503560 
C     6.8140360   -3.4796764    0.4597701 
C     5.9009256   -2.9626210   -0.3886846 
H     6.1863254    0.2938044    0.2620197 
H     7.8604376   -0.5967512    1.8139426 
H     8.2620165   -3.0110902    1.9432642 
H     6.9762377   -4.5513419    0.5085160 
N     5.0552125   -3.6765628   -1.2795057 
C     4.3149854   -2.6016612   -1.8748374 
H     4.9878691   -4.7059635   -1.4540869 
H     3.5158859   -2.7302393   -2.6040358 
