48
 energy: -9.061123916675 gnorm: 0.000488018125 xtb: 6.6.0 (2ccbbd7)
C            1.73421793402595       -5.72259556664118        0.03128103612137
C            1.80493970291758       -4.35179410686474        0.11083078305621
C            0.86938542987222       -6.33749071872988       -0.87479422422896
C            0.08475562087273       -5.52607246696665       -1.69398168830795
C            0.16274039373339       -4.15636684490285       -1.60987715182296
C            1.01891751701685       -3.54867589180883       -0.70340896820955
H            2.47908180182406       -3.88807902645458        0.81055306877357
H           -0.58050910238447       -5.99976259199718       -2.39354777131859
H           -0.44243948660122       -3.54042402235150       -2.25289791626786
H            2.34730880152222       -6.33544838065376        0.66749452656530
C            1.13407735211400       -2.05757295171831       -0.65130282198359
C            2.03413657747684       -1.49177941248695       -1.75051443171181
H            1.52594464008972       -1.74963635441043        0.32249187572718
H            0.13826953274977       -1.60764860355478       -0.72523779154579
C            2.03223651382942        0.02226871000244       -1.70506935635883
O            0.77451403441918       -7.71233088957414       -0.97998759155300
H            1.37904985977580       -8.14125441521072       -0.33632016956901
O            1.16855953487355        0.62660212322313       -2.31394039557355
N            3.40049734610077       -1.98897684753049       -1.66910695406126
H            1.63378106652469       -1.78964681142901       -2.73190077255614
H            3.84074105865208       -1.58809759189433       -0.84625106442540
H            3.40438884769786       -2.99466366973586       -1.56355778520199
N            3.04119708588961        0.66400837896956       -0.93558557820248
C            4.07449022418284        1.48193831333076       -1.61202177658403
H            2.71271846068853        1.25621074637961       -0.16611884328004
C            3.65030239219875        2.92099781350861       -1.66911869891375
O            4.59130882425003        3.89509162698256       -1.50816631539124
O            2.32336946133356        3.19003003153564       -1.90189843307645
H            1.84346662072667        2.33616537315236       -2.06280546046423
C            4.41754035761232        0.93359345932871       -3.01121790004135
H            4.97655943399964        1.41553778409439       -0.98572607602551
C            5.86241701508258        1.02706759909603       -3.38798934211079
H            3.80261500787876        1.44125980733552       -3.76123986791327
H            4.12209251004890       -0.12004276678032       -3.05403769936227
C            6.79472183132104        2.06448767960462       -3.07995395733691
C            6.69516468518204        3.26909280143778       -2.37236386905988
C            7.79460540508697        4.06395020513376       -2.24623437482940
C            9.02454204241445        3.69295457612128       -2.81376256719573
C            9.15343553688727        2.52452260727572       -3.51356070224168
C            8.03013765227806        1.69874343162952       -3.65275395849443
H            5.60683776196253        3.59566404186464       -1.90442430471737
H            7.71481980662195        4.99268786501217       -1.70622273031461
H            9.87688945713894        4.34153114441324       -2.69708459393306
H           10.08905766032039        2.23130871471882       -3.95479467626114
N            7.84812597742887        0.48737245418959       -4.29382129752611
C            6.54257034816718        0.09506179047704       -4.13326774977053
H            8.57570851753250       -0.01716263249152       -4.80353499166317
H            6.12191008543624       -0.81600787706576       -4.52717870733897
