48
Energy =
C     4.0393147    3.4784938    2.3161066 
C     3.2690160    2.3631024    2.3957369 
C     3.4605710    4.7085881    2.2788735 
C     2.1131453    4.8131956    2.3174315 
C     1.3378607    3.7017651    2.3919208 
C     1.9127075    2.4691112    2.4404688 
H     3.7437349    1.3833687    2.4061981 
H     1.6641218    5.7988818    2.2774211 
H     0.2566369    3.8076184    2.4073829 
H     5.1188009    3.3847826    2.2680122 
C     1.0488799    1.2282036    2.4912739 
C     0.7248006    0.7065901    1.0732771 
H     0.1054479    1.4586848    3.0327454 
H     1.5534876    0.4289939    3.0807247 
C     1.9605195    0.1615338    0.3739641 
O     4.2254577    5.8781211    2.2060842 
H     5.2144763    5.7048176    2.0641681 
O     2.8370818   -0.6867953    1.0456280 
N    -0.3257960   -0.3202499    1.1425322 
H     0.3516575    1.5553968    0.4546637 
H     0.0089838   -1.1189616    1.7347971 
H    -1.1810409    0.0753978    1.5980903 
N     2.1573347    0.3830586   -1.0261763 
C     3.4544529    0.9652360   -1.4146795 
H     1.3786202    0.1664800   -1.6888916 
C     3.5083795    2.4656234   -1.1614881 
O     4.7004071    3.0302185   -0.7293419 
O     2.4428230    3.3110018   -1.4682639 
H     1.6283249    2.7909890   -1.7549987 
C     3.7246160    0.6371360   -2.8959920 
H     4.2671892    0.5184362   -0.7898694 
C     5.1580159    0.9382099   -3.2796771 
H     3.0281402    1.2125906   -3.5460672 
H     3.5057228   -0.4372285   -3.0821347 
C     6.2062103    0.1043755   -3.1866681 
C     6.2585532   -1.1860180   -2.7656184 
C     7.4691165   -1.8142750   -2.7521708 
C     8.5967092   -1.1504876   -3.1495677 
C     8.5211838    0.1471900   -3.5603921 
C     7.3118451    0.7459266   -3.5687146 
H     5.3682627   -1.7133321   -2.4352489 
H     7.5387432   -2.8465664   -2.4170454 
H     9.5585155   -1.6569307   -3.1307905 
H     9.4076260    0.6913907   -3.8682671 
N     7.0211497    2.0877932   -3.9321028 
C     5.6056969    2.1348980   -3.7018782 
H     7.6652993    2.8333508   -4.2832067 
H     4.9939694    3.0331710   -3.7894334 
