48
Energy =
C     1.6522949    0.5627180    1.8313734 
C     1.1532427    0.1153592    0.6517290 
C     2.4113006   -0.2549007    2.6063856 
C     2.6499706   -1.5223417    2.2044495 
C     2.1555099   -1.9740464    1.0247786 
C     1.4301299   -1.1478998    0.2183030 
H     0.5172401    0.7777093    0.0733125 
H     3.2404466   -2.1715968    2.8419054 
H     2.3464220   -3.0026420    0.7313573 
H     1.4406080    1.5770281    2.1537106 
C     0.8673791   -1.6641997   -1.0986988 
C     1.8635059   -1.7870522   -2.2932973 
H    -0.0045766   -1.0487027   -1.4137309 
H     0.4426840   -2.6745578   -0.9060421 
C     2.1094656   -0.5138025   -3.1159502 
O     2.9530112    0.1788180    3.8197121 
H     2.7551145    1.1510689    4.0333021 
O     1.9356732   -0.5814930   -4.4938754 
N     3.1104943   -2.4856181   -1.9295134 
H     1.3435630   -2.4406014   -3.0369553 
H     3.5997534   -2.0321970   -1.1286852 
H     2.8863927   -3.4673133   -1.6403730 
N     2.3470589    0.7878290   -2.5487730 
C     3.7044831    0.9458210   -1.9915129 
H     1.6065925    0.9786971   -1.8465519 
C     3.7912590    2.2161991   -1.1423095 
O     3.6064472    3.4557172   -1.7433704 
O     4.0717620    2.1780808    0.2249809 
H     4.2472706    1.2440402    0.5655488 
C     4.7226962    0.9979652   -3.1544168 
H     3.9485185    0.0956930   -1.3270415 
C     6.1451276    0.9865070   -2.6425814 
H     4.5379410    1.9079356   -3.7707456 
H     4.5702701    0.1404099   -3.8484852 
C     6.8711639   -0.0949398   -2.3199657 
C     6.5559511   -1.4127730   -2.4077125 
C     7.4778778   -2.3278764   -1.9927252 
C     8.6857543   -1.9172749   -1.4997254 
C     8.9787822   -0.5880350   -1.4185780 
C     8.0512520    0.2977782   -1.8384581 
H     5.5974679   -1.7440888   -2.7973209 
H     7.2495330   -3.3894898   -2.0539395 
H     9.4144482   -2.6533061   -1.1692352 
H     9.9296041   -0.2450924   -1.0249104 
N     8.1458433    1.7150916   -1.8210041 
C     6.8648408    2.0843281   -2.3500066 
H     8.9377891    2.3229218   -1.5089420 
H     6.5106181    3.1102965   -2.4543183 
