48
Energy =
C     1.6914659    4.9292779   -1.2775648 
C     2.5995945    4.3301394   -2.0893311 
C     0.4378476    5.1927652   -1.7333642 
C     0.0993252    4.8500988   -2.9971377 
C     1.0029240    4.2516732   -3.8132374 
C     2.2622576    3.9946573   -3.3664216 
H     3.5943702    4.0980194   -1.7071254 
H    -0.9069477    5.0560522   -3.3455259 
H     0.7085566    3.9745076   -4.8218426 
H     1.9675426    5.1902258   -0.2612371 
C     3.2666617    3.3036710   -4.2650575 
C     3.1919795    1.7428444   -4.2323843 
H     4.2954576    3.6295335   -3.9891654 
H     3.1422909    3.6811827   -5.3035819 
C     2.4863573    1.1577406   -3.0050338 
O    -0.5195665    5.8118909   -0.9249803 
H    -0.1957210    6.0270880    0.0117892 
O     1.1501403    0.7737175   -3.1157868 
N     2.5852555    1.2458031   -5.4803272 
H     4.2292230    1.3380587   -4.1772376 
H     1.6073039    1.6125474   -5.5709142 
H     3.1359895    1.5669605   -6.3108181 
N     3.0324862    1.3050615   -1.6770217 
C     4.2442112    0.4895169   -1.3867840 
H     2.2679403    1.0059824   -1.0280347 
C     5.5315811    1.2521636   -1.6917091 
O     5.4833780    2.5074429   -2.2841780 
O     6.7804296    0.7521387   -1.3324123 
H     6.7176486   -0.1126350   -0.8197870 
C     4.2182022   -0.9236652   -2.0391023 
H     4.2969937    0.3455002   -0.2844071 
C     2.9778445   -1.7137485   -1.6720470 
H     5.0967232   -1.5148156   -1.7027902 
H     4.3309750   -0.8348845   -3.1381615 
C     2.0648688   -2.2338496   -2.5111756 
C     2.0024888   -2.2036696   -3.8677170 
C     0.9505514   -2.8120780   -4.4835304 
C    -0.0124627   -3.4445290   -3.7465772 
C     0.0744805   -3.4717042   -2.3866422 
C     1.1238476   -2.8578134   -1.7998605 
H     2.7611831   -1.7165749   -4.4703810 
H     0.8831316   -2.7877946   -5.5669239 
H    -0.8493407   -3.9257725   -4.2464166 
H    -0.6782880   -3.9699878   -1.7849763 
N     1.4008105   -2.7812441   -0.4091122 
C     2.6207333   -2.0300283   -0.4137562 
H     0.8604418   -3.1722656    0.3964613 
H     3.1760321   -1.7607572    0.4810514 
