48
Energy =
C    -0.8772500    6.1639726   -0.9751295 
C    -0.9591930    5.1603830   -0.0614394 
C     0.0326098    6.0977122   -1.9872393 
C     0.8565874    5.0289225   -2.0763834 
C     0.7704668    4.0325769   -1.1623506 
C    -0.1398957    4.0786390   -0.1606265 
H    -1.6805798    5.2330915    0.7482340 
H     1.5803729    4.9831672   -2.8819930 
H     1.4292646    3.0549272   -1.1554045 
H    -1.5371695    7.0207122   -0.8912634 
C    -0.1711015    2.9638259    0.8771084 
C     0.0472564    1.5364867    0.2861070 
H    -1.1504344    2.9839498    1.4041239 
H     0.6086987    3.1702293    1.6454516 
C     1.4865265    1.2988698   -0.2080774 
O     0.1409878    7.1111955   -2.9445519 
H    -0.5051358    7.8800642   -2.8032913 
O     2.0538831    2.1470981   -1.1612725 
N    -0.3571434    0.5288613    1.2818768 
H    -0.5941221    1.4180892   -0.6195215 
H     0.1224707    0.7194886    2.1951456 
H    -1.3869181    0.6018552    1.4605821 
N     2.1866615    0.0984957    0.1339533 
C     3.3771055    0.2047886    0.9986874 
H     1.8324744   -0.8114837   -0.2338685 
C     3.1149735    1.0549178    2.2449779 
O     3.4444267    2.4065705    2.2531111 
O     2.5047162    0.5116350    3.3776768 
H     2.2282133   -0.4487952    3.2285735 
C     4.5853113    0.7069361    0.1786425 
H     3.6281053   -0.8126362    1.3718028 
C     4.9230063   -0.2457994   -0.9456619 
H     5.4727395    0.8315344    0.8367491 
H     4.3676769    1.7150970   -0.2409815 
C     5.6492295   -1.3707150   -0.8569581 
C     6.2805478   -1.9173310    0.2137905 
C     6.9548173   -3.0901180    0.0386999 
C     6.9852703   -3.6928860   -1.1886567 
C     6.3408136   -3.1267705   -2.2485564 
C     5.6825448   -1.9653839   -2.0505388 
H     6.2550169   -1.4409384    1.1890340 
H     7.4703059   -3.5483288    0.8792934 
H     7.5241246   -4.6278095   -1.3200904 
H     6.3519554   -3.5932332   -3.2277193 
N     4.9415522   -1.2232851   -3.0089242 
C     4.4763817   -0.1282834   -2.2080228 
H     4.7765477   -1.4225867   -4.0219342 
H     3.8306448    0.6705862   -2.5681714 
