48
Energy =
C    -0.2350564    4.5009452    1.2649719 
C    -0.4287925    3.1912979    0.9666759 
C     0.7699248    4.8698857    2.1035485 
C     1.5775263    3.9242994    2.6355999 
C     1.3870267    2.6133050    2.3424853 
C     0.3763007    2.2377392    1.5109686 
H    -1.2316792    2.9116383    0.2892919 
H     2.3820502    4.2306874    3.2959238 
H     2.0550615    1.8689142    2.7710734 
H    -0.8841552    5.2531741    0.8302275 
C     0.1808475    0.7800144    1.1535684 
C     0.9336460    0.4081516   -0.1424191 
H    -0.9049558    0.5733803    1.0306973 
H     0.5278301    0.1279496    1.9880560 
C     2.4408018    0.5541500    0.0248419 
O     0.9946530    6.2103208    2.4326872 
H     0.3583172    6.8613641    1.9859780 
O     3.0932167   -0.1511638    1.0327531 
N     0.5830890   -0.9602973   -0.5526343 
H     0.6189480    1.1054729   -0.9523090 
H     0.8593906   -1.6351270    0.2026540 
H    -0.4532572   -1.0410586   -0.6797864 
N     3.1421489    1.6112143   -0.6435059 
C     4.4638912    1.2724652   -1.2091488 
H     2.6551022    2.5214480   -0.7999491 
C     5.2808389    2.5091260   -1.5693090 
O     6.6351265    2.5266845   -1.2628244 
O     4.7430246    3.6043755   -2.2472034 
H     3.7954595    3.4355409   -2.5447580 
C     4.3342111    0.2713331   -2.3850953 
H     5.0722612    0.7790855   -0.4126257 
C     3.4854430    0.7798739   -3.5301212 
H     3.8985821   -0.6805079   -2.0049690 
H     5.3466680    0.0021703   -2.7592415 
C     3.8978895    1.4917934   -4.5919035 
C     5.1387150    1.9409824   -4.9129572 
C     5.2919100    2.6572148   -6.0634154 
C     4.2166459    2.9066873   -6.8704737 
C     2.9808582    2.4426619   -6.5302719 
C     2.8545236    1.7396392   -5.3851596 
H     5.9941045    1.7539534   -4.2698929 
H     6.2739352    3.0361199   -6.3359738 
H     4.3472900    3.4794075   -7.7849021 
H     2.1175304    2.6315583   -7.1587539 
N     1.6664723    1.1723861   -4.8530919 
C     2.1644683    0.5653187   -3.6538941 
H     0.6934633    1.1973807   -5.2342792 
H     1.5622566   -0.0234183   -2.9662914 
