48
Energy =
C     5.6725239    6.7015614    1.6360773 
C     5.0785506    6.0036440    0.6350120 
C     4.9160905    7.3051803    2.5915285 
C     3.5683365    7.2060963    2.5383403 
C     2.9683511    6.5099437    1.5399615 
C     3.7211011    5.9069383    0.5799197 
H     5.7002018    5.5242862   -0.1192239 
H     2.9761718    7.6909772    3.3069185 
H     1.8833343    6.4399422    1.5180620 
H     6.7543218    6.7749685    1.6715993 
C     3.0540813    5.1151496   -0.5206761 
C     2.5958884    3.7133321   -0.0387203 
H     3.7250762    5.0251899   -1.4081781 
H     2.1773780    5.6849048   -0.9071188 
C     1.7417293    3.0379933   -1.1148245 
O     5.4970427    8.0297870    3.6371041 
H     6.5101241    8.0631044    3.6031680 
O     0.5306631    3.6537718   -1.4266240 
N     3.7463482    2.9041334    0.4084411 
H     1.8914486    3.8393730    0.8178529 
H     4.5928751    3.0957626   -0.1775796 
H     4.0015601    3.1822960    1.3860881 
N     2.0092532    1.7322434   -1.6748323 
C     3.3343847    1.5896413   -2.3401467 
H     1.2521496    1.6043850   -2.3807516 
C     3.9247177    2.8784459   -2.9160528 
O     3.1101757    3.8237791   -3.5185151 
O     5.2820136    3.1740282   -2.7976009 
H     5.8172543    2.3864090   -2.4614411 
C     3.3193544    0.4432681   -3.3833413 
H     4.0415977    1.2513748   -1.5545043 
C     2.4889932    0.7403542   -4.6195583 
H     2.9331168   -0.4776937   -2.8931361 
H     4.3617881    0.2114822   -3.6925360 
C     2.8812452    1.3931819   -5.7279916 
C     4.0819186    1.9476236   -6.0387372 
C     4.2236568    2.5522437   -7.2530069 
C     3.1783330    2.5880134   -8.1332333 
C     1.9839839    2.0201343   -7.8038765 
C     1.8667427    1.4317790   -6.5948230 
H     4.9126677    1.9310810   -5.3403622 
H     5.1708470    3.0160437   -7.5170460 
H     3.2984030    3.0759899   -9.0970555 
H     1.1445820    2.0403645   -8.4904201 
N     0.7215566    0.7752810   -6.0702871 
C     1.2106382    0.3551133   -4.7905773 
H    -0.2165781    0.6272754   -6.5078846 
H     0.6240847   -0.2015230   -4.0635920 
