48
Energy =
C     1.7740587   -1.3408020    2.8056275 
C     1.3843085   -0.7374576    1.6539537 
C     1.1704853   -2.4888242    3.2139962 
C     0.1814112   -3.0260046    2.4647621 
C    -0.2110872   -2.4277986    1.3116153 
C     0.3875167   -1.2764265    0.8993283 
H     1.8813373    0.1750607    1.3377424 
H    -0.2901987   -3.9427641    2.8000517 
H    -1.0042621   -2.8790607    0.7226127 
H     2.5716497   -0.9041903    3.3970103 
C    -0.0387265   -0.6127279   -0.3945063 
C     0.8694489   -0.9763060   -1.5956671 
H    -0.0488308    0.4912234   -0.2545721 
H    -1.0892711   -0.8883098   -0.6348891 
C     2.2818357   -0.4254475   -1.4321589 
O     1.5463203   -3.1351245    4.3965798 
H     2.3022118   -2.6745703    4.8913252 
O     3.3602566   -1.2848767   -1.2296793 
N     0.8558867   -2.4275462   -1.8502959 
H     0.4643429   -0.4719386   -2.5017500 
H     1.3770822   -2.9210124   -1.0846199 
H    -0.1263735   -2.7865727   -1.8399293 
N     2.5233292    0.9799379   -1.6298050 
C     3.9024447    1.4809588   -1.4543640 
H     1.7255136    1.6208764   -1.8475277 
C     3.9182901    2.9506912   -1.0291477 
O     4.8310174    3.8357254   -1.5921245 
O     3.0750369    3.4258243   -0.0257447 
H     2.5066776    2.6866424    0.3592194 
C     4.7232539    1.2080607   -2.7395292 
H     4.3958611    0.9435887   -0.6119640 
C     4.0034691    1.6480440   -3.9998605 
H     4.9513781    0.1223407   -2.7929766 
H     5.7130024    1.7125711   -2.6771537 
C     3.2279276    0.8882097   -4.7940157 
C     2.9245870   -0.4344975   -4.7171720 
C     2.0883409   -0.9650897   -5.6539918 
C     1.5774939   -0.1787269   -6.6485188 
C     1.9007746    1.1437477   -6.7126825 
C     2.7284974    1.6465942   -5.7727992 
H     3.3294319   -1.0699717   -3.9353505 
H     1.8277656   -2.0205801   -5.6075070 
H     0.9116916   -0.6103994   -7.3923544 
H     1.5043445    1.7812777   -7.4963815 
N     3.1779886    2.9888149   -5.6592414 
C     3.9957469    2.9047860   -4.4830359 
H     2.9719665    3.8145361   -6.2690729 
H     4.5235232    3.7489121   -4.0412189 
