48
Energy =
C    -0.0827495   -4.1765936   -4.6529008 
C     0.0913213   -2.9135101   -5.1178095 
C    -0.4659886   -4.3842561   -3.3650115 
C    -0.6728122   -3.3249878   -2.5508148 
C    -0.5043543   -2.0601350   -3.0116612 
C    -0.1155214   -1.8441379   -4.2987900 
H     0.4000084   -2.7655423   -6.1490721 
H    -0.9709100   -3.5024532   -1.5234485 
H    -0.6679542   -1.2233229   -2.3379070 
H     0.0860910   -5.0200200   -5.3137044 
C     0.0789982   -0.4320034   -4.8197798 
C     1.5076408    0.1364898   -4.6178573 
H    -0.6605037    0.2461029   -4.3388541 
H    -0.1617839   -0.4073388   -5.9054676 
C     1.8181310    0.4675580   -3.1625081 
O    -0.6558333   -5.6729522   -2.8555815 
H    -0.4713512   -6.4117894   -3.5250986 
O     1.8740815   -0.5337786   -2.1996164 
N     2.5303389   -0.7434774   -5.2103721 
H     1.5460709    1.1105065   -5.1576809 
H     2.5894286   -1.6344392   -4.6572380 
H     2.2625840   -0.9977391   -6.1899908 
N     2.2235913    1.7942264   -2.8003672 
C     3.6098455    1.9509881   -2.3207294 
H     1.5683841    2.5914540   -2.9643334 
C     3.8199968    3.3057464   -1.6492937 
O     4.2817406    3.3572986   -0.3410606 
O     3.6183085    4.5055239   -2.3368050 
H     3.2431924    4.3566163   -3.2603048 
C     4.5950971    1.7346415   -3.4928658 
H     3.8053076    1.1893347   -1.5264464 
C     6.0234648    1.6691779   -3.0023402 
H     4.4846553    2.5404135   -4.2499224 
H     4.3584110    0.7885224   -4.0267313 
C     6.6533396    0.5869259   -2.5191724 
C     6.2065454   -0.6873862   -2.3740530 
C     7.0515650   -1.6116609   -1.8337269 
C     8.3132649   -1.2518555   -1.4469962 
C     8.7367729    0.0357556   -1.5959610 
C     7.8835737    0.9309858   -2.1363852 
H     5.1995310   -0.9729619   -2.6674426 
H     6.7167183   -2.6380985   -1.7032947 
H     8.9785279   -1.9933859   -1.0118199 
H     9.7300955    0.3403218   -1.2845288 
N     8.1143018    2.3160885   -2.3539894 
C     6.8537844    2.7226810   -2.9055707 
H     8.9756304    2.8801193   -2.1697206 
H     6.5901820    3.7509099   -3.1534160 
