48
Energy =
C     0.5344470   -3.1874138   -6.2527940 
C     0.6408901   -1.8597066   -5.9934897 
C    -0.2107876   -3.9841883   -5.4421683 
C    -0.8488882   -3.4449666   -4.3797301 
C    -0.7468407   -2.1179861   -4.1163263 
C     0.0087609   -1.3137815   -4.9154701 
H     1.2372292   -1.2375811   -6.6552736 
H    -1.4463217   -4.0890177   -3.7437375 
H    -1.2846625   -1.7092200   -3.2672767 
H     1.0456702   -3.6096153   -7.1113849 
C     0.1352803    0.1745609   -4.6292234 
C     1.3504053    0.5752062   -3.7358028 
H    -0.8079013    0.5505486   -4.1724226 
H     0.2168439    0.7182636   -5.5963269 
C     1.1519963    0.2744949   -2.2425694 
O    -0.3398040   -5.3561874   -5.6801023 
H     0.1627247   -5.6818246   -6.4985903 
O    -0.1071479   -0.1541136   -1.8352254 
N     2.5940553    0.0059633   -4.2831109 
H     1.3783521    1.6812909   -3.7894030 
H     2.5670440   -1.0400244   -4.2080515 
H     2.6806298    0.2508740   -5.2980298 
N     2.0881094    0.5194658   -1.1613500 
C     3.4081223    1.1949026   -1.2611422 
H     1.5170011    0.9768567   -0.4117294 
C     3.5029569    2.5951017   -1.8186485 
O     5.2196369    4.5529908    0.1210902 
O     3.2128374    2.9973507   -3.1152634 
H     3.5062515    2.2858090   -3.7730965 
C     4.5443962    0.2806294   -1.6925071 
H     3.6856116    1.3974023   -0.1969838 
C     5.9423078    0.9077540   -1.6575960 
H     4.3670407   -0.0717272   -2.7231913 
H     4.5310987   -0.6292458   -1.0501357 
C     6.3182764    2.2165039   -1.8004055 
C     5.6250528    3.4082948   -1.6428785 
C     6.1703474    4.5212548   -2.2505038 
C     7.4038974    4.4846604   -2.8242824 
C     8.1222497    3.3359360   -2.8222093 
C     7.5655220    2.2274477   -2.2983822 
H     4.2357655    3.6379888   -0.7029122 
H     5.6392185    5.4683234   -2.1905539 
H     7.8264519    5.3881521   -3.2564189 
H     9.1101773    3.2957370   -3.2682281 
N     8.1151849    0.9236961   -2.3648526 
C     7.0020395    0.1338492   -1.9571663 
H     9.0724531    0.6250295   -2.6624029 
H     6.9623552   -0.9475174   -2.0760253 
