48
 energy: -9.084431164495 gnorm: 0.000750927163 xtb: 6.6.0 (2ccbbd7)
C           -0.83773778305068       -0.05214402748381       -4.84816418362657
C           -1.00857009198644        0.25516267561631       -3.51863957307417
C            0.23233801822905       -0.84630501929139       -5.26275535770430
C            1.12047893470223       -1.31389202842102       -4.29492147227698
C            0.94274929367274       -1.00135375706376       -2.96861844031001
C           -0.12597148512694       -0.21655985026485       -2.55837549525863
H           -1.83539704074159        0.87246079662025       -3.21270839151361
H            1.94940047601892       -1.92032382200218       -4.61348779402115
H            1.64150857610809       -1.35960618654110       -2.23243537035502
H           -1.52813139696043        0.32004524906651       -5.58378668691525
C           -0.28285017276640        0.15432384588805       -1.11558663023912
C            0.30148298640984        1.53606322408426       -0.77690113209054
H            0.20311637843844       -0.60971993442330       -0.49956593870555
H           -1.34296233564607        0.12414435499680       -0.84512206913358
C            1.70661469511683        1.65300224288063       -1.25080569440365
O            0.42924260736145       -1.17739007552148       -6.59039429996267
H           -0.25532127435196       -0.74747973015288       -7.14748269620082
O            1.95397606121811        2.13520638472606       -2.50839092588702
N           -0.47303094084509        2.63103547158645       -1.35427501749105
H            0.29578964572817        1.68052656536642        0.31569718316204
H           -0.15093975743724        2.78128589735890       -2.30712112130476
H           -1.46441595837071        2.42292462609798       -1.36890424478986
N            2.83450465318417        1.28067688567316       -0.47900729139088
C            4.11787377116092        1.45716590847287       -1.16803991174530
H            2.78334132608468        0.36714407179369       -0.03027525554038
C            4.13906149155221        2.81222653020914       -1.81821971014148
O            3.04781563396844        3.16089672398553       -2.51160142257294
O            5.25066310548231        3.61520261415731       -1.69717568156645
H            5.94564444358853        3.16942525811952       -1.16548659120717
C            4.32074602866658        0.37413035224202       -2.22900603903311
H            4.92603205019581        1.40721685500059       -0.42363395467244
C            5.62012946556731        0.49319833019231       -2.95062940187074
H            3.50306935874435        0.45278042141617       -2.95295456243959
H            4.23408555294950       -0.61876010431987       -1.77766958664327
C            6.82449602239555       -0.21845821458458       -2.67102034279778
C            7.15194960900664       -1.21646301023462       -1.73685333270386
C            8.43088878649286       -1.70095888265331       -1.71742213693396
C            9.40547952970335       -1.21794689093118       -2.60634362106543
C            9.10989551837302       -0.24494378800852       -3.52178390607702
C            7.80567389729389        0.26451526704556       -3.55899594102276
H            6.40350514785205       -1.58119955631346       -1.05610377695856
H            8.69813925389920       -2.46641741856052       -1.00783145741329
H           10.40381853579860       -1.62109175300619       -2.56367912433799
H            9.85012630758448        0.13272781135805       -4.20410335089641
N            7.21425370152919        1.24029040622581       -4.34308820890794
C            5.90213776610019        1.37677813634916       -3.96295513656315
H            7.69840562853681        1.79212658527599       -5.05363787816357
H            5.21007819547561        2.09741634786746       -4.36923736894766
