48
Energy =
C     1.2762577    4.3027234    1.6380970 
C     0.7326271    3.2462169    0.9825405 
C     2.6256847    4.4679941    1.6666981 
C     3.4215729    3.5760153    1.0344137 
C     2.8824968    2.5187087    0.3774520 
C     1.5333875    2.3448284    0.3489137 
H    -0.3474543    3.1267586    0.9663651 
H     4.4962806    3.7206630    1.0598658 
H     3.5384811    1.8160109   -0.1214990 
H     0.6295557    5.0146000    2.1394451 
C     0.9252993    1.1714467   -0.3899563 
C     0.2803712    1.5958653   -1.7276157 
H     0.1540741    0.7020613    0.2593501 
H     1.6872404    0.3837115   -0.5765698 
C     1.3033249    2.1345937   -2.7189962 
O     3.2191912    5.5401950    2.3405987 
H     2.5571514    6.1818368    2.7634041 
O     1.4285606    3.5073364   -2.8965902 
N    -0.4833881    0.4672859   -2.2892559 
H    -0.4216803    2.4438312   -1.5438529 
H     0.0930086   -0.4075628   -2.2701200 
H    -1.3269459    0.2876520   -1.6942536 
N     2.0646324    1.2545255   -3.5568195 
C     3.5342971    1.3844694   -3.5148646 
H     1.5582088    0.5063217   -4.0808684 
C     4.0604542    2.3044479   -4.6135968 
O     5.1480886    3.1241389   -4.3339248 
O     3.5690197    2.2679200   -5.9196696 
H     2.7635987    1.6665416   -5.9947680 
C     4.1764766   -0.0159401   -3.6108096 
H     3.8550530    1.8634075   -2.5610747 
C     3.8868595   -0.8359063   -2.3751328 
H     5.2794607    0.0732376   -3.7359137 
H     3.8014531   -0.5458578   -4.5152299 
C     4.5202916   -0.7558288   -1.1951001 
C     5.5747294    0.0156045   -0.8242155 
C     6.0166736   -0.0682487    0.4632684 
C     5.4052057   -0.9111192    1.3498711 
C     4.3493747   -1.6775368    0.9536557 
C     3.9333085   -1.5800089   -0.3262591 
H     6.0574797    0.6905036   -1.5256949 
H     6.8592063    0.5389079    0.7865964 
H     5.7626527   -0.9710921    2.3749696 
H     3.8518623   -2.3489670    1.6453364 
N     2.8454946   -2.2650100   -0.9313485 
C     2.8824045   -1.7213764   -2.2576079 
H     2.1892214   -2.9658007   -0.5165751 
H     2.1780910   -1.9748394   -3.0461145 
