48
Energy =
C    -1.2411902    0.6905289   -0.7702672 
C    -0.3345062    0.0928815    0.0451759 
C    -1.7050124    0.0391051   -1.8704546 
C    -1.2566467   -1.2059265   -2.1486073 
C    -0.3469842   -1.8061450   -1.3407590 
C     0.1146125   -1.1622851   -0.2341042 
H     0.0571423    0.6380162    0.9040935 
H    -1.6278516   -1.7108585   -3.0335586 
H     0.0166884   -2.7988649   -1.5934755 
H    -1.5834769    1.6963164   -0.5490743 
C     1.1879024   -1.7993619    0.6203830 
C     2.5930676   -1.5394200    0.0343536 
H     1.0021073   -2.8939982    0.6847892 
H     1.1425800   -1.4143977    1.6650727 
C     2.9460132   -0.0585420    0.0683105 
O    -2.6352381    0.6264496   -2.7333538 
H    -2.8884870    1.5756129   -2.4793780 
O     3.0919331    0.5749078    1.2980733 
N     3.5957219   -2.3399088    0.7544860 
H     2.6012393   -1.8497002   -1.0321246 
H     3.6264011   -2.0402101    1.7602880 
H     3.3328065   -3.3529244    0.7346106 
N     2.6958618    0.7588968   -1.0800266 
C     3.7697207    1.6679235   -1.5157048 
H     1.8273089    0.6185832   -1.6441467 
C     3.2343295    3.0765213   -1.7491354 
O     1.9133145    3.2636329   -2.1410902 
O     4.0730947    4.1895908   -1.6959557 
H     5.0049519    3.9542183   -1.3892455 
C     4.4550079    1.0982644   -2.7814571 
H     4.5335266    1.7704481   -0.7089219 
C     3.4622926    0.7220215   -3.8680069 
H     5.0656445    0.2181829   -2.4908528 
H     5.1733416    1.8433111   -3.1914990 
C     3.0254101   -0.5128363   -4.1739470 
C     3.3885721   -1.7204215   -3.6674670 
C     2.7563271   -2.8363711   -4.1306123 
C     1.7821461   -2.7327185   -5.0838755 
C     1.4376211   -1.5123307   -5.5831703 
C     2.0807407   -0.4235011   -5.1124718 
H     4.1608518   -1.8123708   -2.9106270 
H     3.0298625   -3.8137417   -3.7400420 
H     1.2818258   -3.6267191   -5.4477696 
H     0.6649840   -1.4109342   -6.3380394 
N     1.8568385    0.9280384   -5.4826610 
C     2.7889013    1.6057407   -4.6281566 
H     1.1981656    1.3213653   -6.1943319 
H     2.8826628    2.6900763   -4.5559346 
