48
 energy: -9.123296409797 gnorm: 0.000713102941 xtb: 6.6.0 (2ccbbd7)
C            3.08129326406231        4.83487534847791       -0.98188501372117
C            1.99964459238111        3.94187729649397       -0.27107550641653
C            2.56059083428421        5.65752642078265       -2.11894556607013
C            1.26721780895245        5.53017961512148       -2.50918806581790
C            0.34067332735423        4.59856971310075       -1.92931244436945
C            0.64223362690504        3.82553251884175       -0.87683839349368
H            2.09342762682279        3.68829581892259        0.78816578310454
H            0.94281678894326        6.13606426902982       -3.33607486928631
H           -0.61418645099535        4.46335364962641       -2.40822769506730
H            3.92880004248298        5.23177323192684       -0.41777374192620
C           -0.20785473619013        2.65549340044838       -0.47361071355636
C            0.04961105834361        1.39970898642758       -1.33654765396279
H           -1.26703457491606        2.92938119516406       -0.50053860294131
H            0.00893453305780        2.41051920867932        0.57029591174976
C            1.51695034772392        1.26492663308495       -1.61448106844323
O            3.40177105069450        6.52475927224843       -2.75848626393991
H            4.30540485503109        6.45032482092119       -2.38212397292583
O            2.02271832433744        1.97342387434671       -2.68474873119254
N           -0.50872415469519        0.18512441151915       -0.75216054129782
H           -0.42731722908363        1.54319209378414       -2.31911820829430
H           -0.07857187543544        0.00295232963813        0.14480075848202
H           -1.50089761726257        0.29955492001114       -0.58571794178789
N            2.38307331504240        0.59826530972686       -0.74507005141804
C            3.83006891132313        0.89171167046781       -0.76221509515175
H            2.05195213785332        0.43180329599334        0.20203603261530
C            4.05815513328721        2.35336193626005       -0.46458087878812
O            4.87575539047050        2.75096471892327        0.33191449953181
O            3.08673405383844        3.26477410266991       -1.21077132623954
H            2.60789902785907        2.74039273325428       -2.11866334668517
C            4.47619348664633        0.48281932432435       -2.08622640144085
H            4.30466005924090        0.31055443993132        0.04247396537462
C            4.35218064869553       -0.97623657725232       -2.37383155133525
H            5.53115170121958        0.77468643991010       -2.08502864813330
H            4.00589544307554        1.04349733614612       -2.89927971604576
C            5.35948381024109       -1.84164780372380       -2.89691911325330
C            6.70705250294423       -1.64280258122534       -3.24504925504333
C            7.42259706907953       -2.70293655507765       -3.72966894762706
C            6.83382252711071       -3.96914335535006       -3.88201777842922
C            5.52346652687481       -4.18547549852836       -3.55297503644953
C            4.77192493141908       -3.11315467731427       -3.05524360523944
H            7.15489447743565       -0.67216535501239       -3.12752466681512
H            8.45666765363080       -2.56667754173471       -3.99991459220579
H            7.42668086889238       -4.78310735186956       -4.26546561495143
H            5.06460990984471       -5.15116287759088       -3.66733764150807
N            3.45184662947964       -3.01794278213562       -2.64843923630336
C            3.21209037607074       -1.72819684045041       -2.24597781597498
H            2.77695977439885       -3.78472158182943       -2.66795555634592
H            2.27154448120292       -1.35653043810761       -1.87775667060942
