48
Energy =
C     3.0129413    4.3558303    3.9152550 
C     3.1210015    3.6345698    2.7710319 
C     3.5336613    3.8766234    5.0768282 
C     4.1619997    2.6786098    5.0835727 
C     4.2742566    1.9539329    3.9416404 
C     3.7536175    2.4286172    2.7776534 
H     2.7054565    4.0311491    1.8452893 
H     4.5755839    2.3085514    6.0148254 
H     4.7840714    0.9943663    3.9630142 
H     2.5106912    5.3170105    3.8961418 
C     3.8609181    1.6248426    1.5030296 
C     2.5730711    0.8211715    1.2023294 
H     4.7422341    0.9467851    1.5250833 
H     4.0632309    2.3345924    0.6665793 
C     2.4929331    0.4579906   -0.2769307 
O     3.4363053    4.5924306    6.2750827 
H     2.9693049    5.4876565    6.1787875 
O     2.4405515   -0.8769672   -0.6766031 
N     2.4951061   -0.3681844    2.0680462 
H     1.6768858    1.4565171    1.3875895 
H     3.3032295   -1.0031280    1.8611508 
H     2.5460617   -0.0895912    3.0734175 
N     2.1968324    1.4911366   -1.2239313 
C     3.0195631    1.6050616   -2.4370286 
H     1.4136081    2.1579667   -1.0614794 
C     3.9316293    2.8390519   -2.3345770 
O     4.9291680    2.8554856   -1.3735776 
O     3.8584495    3.9347923   -3.1841570 
H     3.5460167    3.5207697   -4.1763014 
C     2.0309107    1.5524369   -3.6306946 
H     3.7273868    0.7505890   -2.5370493 
C     2.7328959    1.6891971   -4.9386030 
H     1.3400542    2.4231010   -3.5547996 
H     1.4237305    0.6244984   -3.6034863 
C     3.4558141    0.7668705   -5.5803810 
C     3.4492086   -0.5806330   -5.4302907 
C     4.3237872   -1.3230895   -6.1686185 
C     5.1975585   -0.7079083   -7.0214804 
C     5.2029383    0.6518855   -7.1323081 
C     4.3161775    1.3648456   -6.4000920 
H     2.7642045   -1.0519972   -4.7338598 
H     4.3315360   -2.4039159   -6.0649325 
H     5.9023573   -1.3001095   -7.5973480 
H     5.9092936    1.1615917   -7.7762371 
N     4.2450356    2.7871384   -6.3135092 
C     3.1895614    3.0573922   -5.3162335 
H     4.8135262    3.4904300   -6.8346682 
H     2.3581105    3.6064069   -5.8184117 
