48
 energy: -9.066457602000 gnorm: 0.000701331835 xtb: 6.6.0 (2ccbbd7)
C            2.63070932484265        0.97811140395323        4.54790826408605
C            3.18025840509254        1.65827607421789        3.48687410347937
C            1.54158808375199        0.12741014042060        4.35898173062686
C            1.02919832321330       -0.00878997306801        3.06972890797142
C            1.58575185693584        0.67541994721884        2.01652185633443
C            2.66737671807728        1.52373819069825        2.20318968341156
H            4.02557076830574        2.30536844794216        3.64738912046338
H            0.18435617740645       -0.65766371042000        2.92175333797060
H            1.15858163696508        0.57938359700490        1.03457097971035
H            3.03854113738753        1.09375700827248        5.53608760369611
C            3.31898068068895        2.24365604163387        1.05766080041601
C            2.36026285817475        2.96806433252791        0.09253723931542
H            3.92901929531107        1.52654965232717        0.49995038567679
H            4.02064720957517        2.97774110750170        1.46766021221748
C            1.67253156277440        2.00451523226326       -0.84965095912323
O            0.96716147006820       -0.57229861260745        5.40297240490389
H            1.43595467680925       -0.36986054657591        6.24140950678865
O            0.55342504910297        1.62200002042049       -0.57596472746963
N            1.36535927126425        3.74839421447689        0.80775883244377
H            2.94158102423948        3.67805506630123       -0.51783424025146
H            0.74784591925125        4.19128227201911        0.13924003649474
H            0.78797593503331        3.10649407756272        1.33209053278871
N            2.32501275460744        1.56844735669767       -1.98189028426204
C            3.60152483148948        2.11251764226804       -2.46314075820133
H            1.82693075618838        0.97091062162687       -2.63803885042093
C            3.42677342019510        3.53398356469528       -2.91401019238068
O            4.50707458599323        4.36286020526446       -2.94970595216961
O            2.16618976170483        3.95129993451391       -3.27446058883095
H            1.50519337688036        3.25131372976205       -3.06768992370926
C            4.21783548957788        1.22210449723959       -3.56769425177978
H            4.28576444152340        2.11081384367571       -1.60449189197405
C            5.68196644322032        0.97586960485877       -3.39423223633640
H            4.03046303906126        1.67151357635161       -4.54817429002566
H            3.70329801221320        0.25556762322173       -3.57908559257371
C            6.67135056304925        1.93329637748693       -3.02667699511953
C            6.60544614423665        3.30016053212731       -2.73866361818685
C            7.74466750542821        3.96219986564249       -2.39247919864201
C            8.97671826286259        3.29016444837942       -2.32074788282780
C            9.07028756120122        1.95318855141861       -2.59899169902281
C            7.90678454681025        1.26004154517446       -2.95847985752873
H            5.51053115648648        3.85234122148999       -2.83697258052984
H            7.69697367814038        5.01612179396385       -2.17505514516512
H            9.86107874771288        3.83926633363057       -2.04310960794282
H           10.00835897952173        1.43034131062203       -2.54714875849682
N            7.67201740255681       -0.06335636768766       -3.28709558756195
C            6.33276478118740       -0.22381805108279       -3.54954265385495
H            8.38931092062351       -0.78994414761373       -3.32253245806467
H            5.86805335294429       -1.15659502775289       -3.82517275958925
