48
Energy =
C     0.1642809    2.7040722   -3.1995874 
C     0.0953320    2.5713786   -1.8513651 
C     0.6356167    3.8531175   -3.7509632 
C     1.0328292    4.8648349   -2.9485349 
C     0.9554878    4.7432635   -1.5991135 
C     0.4829073    3.5949889   -1.0407545 
H    -0.2637269    1.6366019   -1.4276298 
H     1.4194498    5.7684039   -3.4054228 
H     1.2919814    5.5606958   -0.9669073 
H    -0.1567615    1.8885995   -3.8354484 
C     0.4313719    3.4400682    0.4668517 
C     1.8171791    3.1683613    1.0892525 
H    -0.2566450    2.6095502    0.7437019 
H    -0.0030281    4.3596191    0.9159931 
C     2.4859805    1.9545071    0.4606514 
O     0.7206259    4.0209759   -5.1366303 
H     0.4423879    3.2023557   -5.6665002 
O     2.0356071    0.6813263    0.7957585 
N     2.6403491    4.3865592    0.9904331 
H     1.6740106    2.9022053    2.1635931 
H     2.2756435    5.1043092    1.6600941 
H     3.6234423    4.1794834    1.2915023 
N     3.4090155    2.1041522   -0.6224803 
C     4.6937473    1.3928030   -0.5252381 
H     3.1637441    2.7194595   -1.4316022 
C     5.8444822    2.2419828   -1.0473307 
O     5.6257896    3.1713184   -2.0555523 
O     7.1517435    2.0417206   -0.6064910 
H     7.2203690    1.3191752    0.0933522 
C     4.5979239    0.0442367   -1.2708687 
H     4.9327264    1.1908216    0.5434589 
C     4.0359455    0.1807841   -2.6748331 
H     3.9702307   -0.6461739   -0.6695652 
H     5.6023226   -0.4307366   -1.3291334 
C     2.8143022   -0.1880297   -3.1004396 
C     1.7811313   -0.7506106   -2.4194944 
C     0.6411022   -1.0551479   -3.1033946 
C     0.5480294   -0.7952707   -4.4422925 
C     1.5909296   -0.2179677   -5.1031624 
C     2.7074404    0.0760356   -4.4045975 
H     1.8431999   -0.9552679   -1.3553903 
H    -0.1969024   -1.5083953   -2.5793564 
H    -0.3626109   -1.0450070   -4.9809139 
H     1.5333624    0.0000740   -6.1641734 
N     3.8960947    0.6693218   -4.9041532 
C     4.7050413    0.7031034   -3.7192717 
H     4.1277210    0.9804734   -5.8757896 
H     5.7089346    1.1274625   -3.6673168 
