48
Energy =
C     6.1233017   -1.6905357    1.1561966 
C     4.8176323   -1.5475429    1.4986012 
C     6.9743482   -0.6351172    1.2553041 
C     6.5146531    0.5554071    1.7039341 
C     5.2112849    0.7022204    2.0532472 
C     4.3550553   -0.3505284    1.9545745 
H     4.1356537   -2.3878278    1.3781979 
H     7.2015894    1.3927733    1.7693949 
H     4.8575090    1.6709566    2.3970857 
H     6.4813525   -2.6455983    0.7868474 
C     2.8873607   -0.1724735    2.2771015 
C     2.1297113    0.5323243    1.1284448 
H     2.7886236    0.4251668    3.2099116 
H     2.4111416   -1.1574835    2.4837639 
C     2.3029349   -0.1828090   -0.2021920 
O     8.3192655   -0.7445127    0.8905074 
H     8.5923490   -1.6727692    0.5872337 
O     2.1437592   -1.5642351   -0.2917360 
N     0.7051281    0.6579212    1.4721317 
H     2.5547953    1.5551534    0.9916710 
H     0.2851230   -0.2956771    1.5930954 
H     0.6001827    1.1691288    2.3799732 
N     2.7493011    0.5442452   -1.3486876 
C     4.1542784    0.3730343   -1.7562898 
H     2.0706939    1.1447084   -1.8704232 
C     4.8176816    1.7131972   -2.0482692 
O     4.0691850    2.7582858   -2.5754868 
O     6.1901368    1.8974766   -1.8825978 
H     6.6470598    1.0831310   -1.4967845 
C     4.2319217   -0.5839333   -2.9612400 
H     4.7363845   -0.0835767   -0.9280901 
C     3.4034662   -0.1120259   -4.1396426 
H     3.8959457   -1.5929706   -2.6380443 
H     5.2916416   -0.6993796   -3.2798243 
C     2.1472435   -0.4792513   -4.4436737 
C     1.3139696   -1.3473263   -3.8130100 
C     0.0630757   -1.5327361   -4.3233050 
C    -0.3346002   -0.8540510   -5.4416885 
C     0.5160775    0.0167689   -6.0550959 
C     1.7495521    0.1812455   -5.5328885 
H     1.6184054   -1.8784819   -2.9159389 
H    -0.6226210   -2.2195500   -3.8327857 
H    -1.3350460   -1.0043808   -5.8394765 
H     0.2137662    0.5703539   -6.9375132 
N     2.7696225    1.0508221   -6.0022053 
C     3.8031418    0.8076509   -5.0364653 
H     2.7693433    1.6867923   -6.8328121 
H     4.7524250    1.3430592   -4.9955736 
