48
Energy =
C     2.5156859   -2.4728254   -4.4227917 
C     1.8147277   -2.0609585   -3.3365686 
C     2.6278059   -1.6650207   -5.5106945 
C     2.0375623   -0.4472028   -5.5019050 
C     1.3319023   -0.0330715   -4.4185748 
C     1.2088473   -0.8417631   -3.3320282 
H     1.7350506   -2.7169524   -2.4739805 
H     2.1388048    0.1956363   -6.3702123 
H     0.8653498    0.9494362   -4.4256480 
H     2.9885060   -3.4485479   -4.4174601 
C     0.4133774   -0.3951664   -2.1246811 
C     1.2992797    0.3210344   -1.0731390 
H    -0.0717307   -1.2874213   -1.6723117 
H    -0.4259616    0.2689693   -2.4315820 
C     1.6205623    1.7706152   -1.4371359 
O     3.3496359   -2.0590670   -6.6432677 
H     3.7133070   -3.0036391   -6.5881947 
O     0.9360695    2.3882503   -2.4787979 
N     0.6474372    0.2629398    0.2437045 
H     2.2788313   -0.2028614   -1.0065310 
H    -0.2786075    0.7519723    0.1854704 
H     0.4660105   -0.7322089    0.5106839 
N     2.3223038    2.6104212   -0.4984572 
C     3.4599629    3.3895083   -1.0522300 
H     2.6224962    2.0434218    0.3269417 
C     3.2229309    4.0381635   -2.4065760 
O     4.3548958    4.1869457   -3.1986961 
O     1.9706912    4.2677799   -2.9383132 
H     1.4581123    3.3283640   -2.7094993 
C     4.7974031    2.5885412   -1.0452041 
H     3.6072470    4.2578819   -0.3744593 
C     4.9555685    1.6136115   -2.2062356 
H     4.9146017    2.0634658   -0.0730222 
H     5.6441022    3.3084729   -1.1002862 
C     5.0685688    1.8763960   -3.5400634 
C     5.0419991    3.0891282   -4.2637657 
C     5.1128332    2.9738225   -5.6315330 
C     5.1992204    1.7627290   -6.2485706 
C     5.2274317    0.6204483   -5.5213990 
C     5.1549737    0.7041174   -4.1813815 
H     5.0766008    4.3860660   -4.0255543 
H     5.1036788    3.8726641   -6.2444550 
H     5.2475922    1.7091862   -7.3336408 
H     5.2910062   -0.3473431   -6.0086096 
N     5.1303580   -0.3914678   -3.2795786 
C     4.9947112    0.2824646   -2.0292616 
H     5.2003598   -1.4141618   -3.4851951 
H     4.9223691   -0.2232383   -1.0698701 
