48
Energy =
C     0.2767759    0.2806226    1.2730748 
C     0.8521691   -0.3899524    0.2427371 
C     0.3966106   -0.1838776    2.5427648 
C     1.0828962   -1.3150078    2.7876931 
C     1.6471030   -1.9864586    1.7805663 
C     1.5587484   -1.5333993    0.4868871 
H     0.7436419    0.0035596   -0.7705747 
H     1.1840778   -1.6944417    3.7892701 
H     2.2308620   -2.9453655    1.9672801 
H    -0.2844861    1.1989444    1.0793895 
C     2.1974510   -2.3059557   -0.6821224 
C     3.7206835   -2.6407894   -0.5564465 
H     2.0620230   -1.7201151   -1.6234021 
H     1.6189089   -3.2429603   -0.8514747 
C     4.5459076   -1.5053223    0.0389744 
O    -0.1771882    0.4787110    3.6178168 
H    -0.6959113    1.3301045    3.3924482 
O     4.2476298   -1.1066342    1.3367175 
N     3.9506704   -3.9181534    0.1568451 
H     4.1007045   -2.7819573   -1.5964299 
H     3.6459222   -3.9413494    1.1779883 
H     3.4471924   -4.6939180   -0.3331646 
N     5.8327925   -1.1496779   -0.5046607 
C     5.7859892   -0.0461236   -1.5101822 
H     6.4043353   -0.8415836    0.3236739 
C     4.7614553    1.0283883   -1.2074090 
O     3.4027431    0.7530018   -1.3058208 
O     5.1919777    2.2789322   -0.8061505 
H     4.3979954    2.8949350   -0.6576913 
C     5.6146386   -0.6432813   -2.9342077 
H     6.7501368    0.5365700   -1.4754817 
C     6.0763326    0.3237356   -4.0100566 
H     4.5581646   -0.9371062   -3.1241896 
H     6.2127946   -1.5822293   -3.0306969 
C     5.3313019    1.2356442   -4.6634108 
C     4.0019829    1.5060410   -4.5774726 
C     3.4897977    2.4977727   -5.3620620 
C     4.3017278    3.1955099   -6.2122126 
C     5.6310801    2.9058892   -6.2850850 
C     6.1145859    1.9213763   -5.4994408 
H     3.3452393    0.9548101   -3.9142745 
H     2.4284028    2.7361846   -5.3167883 
H     3.8853148    3.9844708   -6.8367563 
H     6.2875626    3.4502596   -6.9578455 
N     7.4574481    1.4676744   -5.4239880 
C     7.3491785    0.4345248   -4.4390514 
H     8.2962554    1.8129647   -5.9505785 
H     8.1896562   -0.1725467   -4.1030810 
