48
Energy =
C     2.6301503   -3.2684624   -0.0157123 
C     1.8932431   -2.2042292   -0.4218826 
C     2.2030211   -4.0397097    1.0193545 
C     1.0424532   -3.7366458    1.6440608 
C     0.3025566   -2.6719566    1.2427820 
C     0.7198448   -1.9027847    0.1996854 
H     2.2534647   -1.5907668   -1.2405233 
H     0.7161705   -4.3557526    2.4728024 
H    -0.6224887   -2.4397789    1.7641230 
H     3.5637164   -3.4979431   -0.5179219 
C    -0.0934662   -0.7000791   -0.2310325 
C     0.3183658    0.5730742    0.5396212 
H    -1.1723400   -0.9060809   -0.0533636 
H     0.0042840   -0.5319992   -1.3249995 
C     1.7081403    1.0569046    0.1507401 
O     2.9355081   -5.1464557    1.4605026 
H     3.8019787   -5.2963334    0.9551113 
O     2.7766287    0.7478081    0.9902067 
N    -0.6955585    1.6254540    0.3471266 
H     0.3879069    0.3337251    1.6292447 
H    -0.9368884    1.7159603   -0.6693517 
H    -1.5771135    1.3544108    0.8444049 
N     1.9193407    1.8116450   -1.0645519 
C     3.3351301    2.2330136   -1.2639988 
H     1.2960442    2.6467752   -0.9802207 
C     3.4608957    3.6102559   -1.9257849 
O     4.2071664    3.7803111   -3.0845211 
O     2.9200019    4.7474372   -1.3251575 
H     2.5185213    4.5499670   -0.4206854 
C     4.0967289    1.1153045   -2.0204085 
H     3.8556578    2.3915279   -0.2899854 
C     3.5727782    0.8561515   -3.4250713 
H     4.0209498    0.1732907   -1.4360602 
H     5.1773488    1.3652436   -2.0423705 
C     4.2071476    1.0846049   -4.5911844 
C     5.4290103    1.6284279   -4.8347728 
C     5.8439383    1.7450492   -6.1291910 
C     5.0433569    1.3197738   -7.1519869 
C     3.8210977    0.7792215   -6.8870066 
C     3.4316055    0.6769147   -5.5989586 
H     6.0598934    1.9907206   -4.0302966 
H     6.8122630    2.1885725   -6.3486497 
H     5.3790242    1.4200727   -8.1811635 
H     3.1711137    0.4410750   -7.6868281 
N     2.2072263    0.1446931   -5.1178922 
C     2.3800971    0.2992966   -3.7043546 
H     1.4044373   -0.2596710   -5.6521983 
H     1.6408364    0.0081530   -2.9679877 
