48
Energy =
C    -2.5811712    1.1052725   -2.2387618 
C    -1.9349682    0.7210687   -3.3686712 
C    -2.6151561    0.2816622   -1.1569210 
C    -2.0004027   -0.9213650   -1.2129204 
C    -1.3525085   -1.3103450   -2.3395949 
C    -1.3222868   -0.4927422   -3.4282382 
H    -1.9049545    1.3946642   -4.2221018 
H    -2.0281833   -1.5653553   -0.3407313 
H    -0.8451641   -2.2726396   -2.3603762 
H    -3.0654052    2.0753599   -2.2013066 
C    -0.5661751   -0.9038225   -4.6726717 
C     0.8488289   -0.2893680   -4.7129433 
H    -1.1340206   -0.5802651   -5.5724839 
H    -0.4887933   -2.0126226   -4.7351216 
C     1.6815639   -0.7066825   -3.5100902 
O    -3.2686527    0.6474584    0.0238128 
H    -3.6996399    1.5651495   -0.0120785 
O     1.9094138   -2.0606863   -3.2828814 
N     1.5176168   -0.6721513   -5.9672630 
H     0.7622480    0.8228485   -4.6798706 
H     1.5670638   -1.7171869   -6.0464568 
H     0.9732389   -0.3116768   -6.7863740 
N     1.8575333    0.1950931   -2.4092477 
C     3.0141726    1.1123685   -2.4059141 
H     1.1486377    0.1908963   -1.6423738 
C     2.8959304    2.2205912   -3.4510079 
O     2.4697839    3.4796534   -3.0462082 
O     3.2090111    2.0287624   -4.7967247 
H     3.4007701    1.0624047   -5.0176382 
C     4.3460306    0.3280545   -2.4895386 
H     3.0061222    1.6587439   -1.4351325 
C     4.6180366   -0.4293529   -1.2082658 
H     5.1892342    1.0269946   -2.6840958 
H     4.3301313   -0.3845736   -3.3442148 
C     5.1158365    0.0776192   -0.0691489 
C     5.5126874    1.3439276    0.2194405 
C     5.9821875    1.6057595    1.4730362 
C     6.0460754    0.6101581    2.4087383 
C     5.6399541   -0.6534518    2.0965145 
C     5.1806963   -0.8876018    0.8493552 
H     5.4590344    2.1373757   -0.5207930 
H     6.3052501    2.6121519    1.7299542 
H     6.4199300    0.8271559    3.4066520 
H     5.6804563   -1.4540128    2.8278220 
N     4.7028288   -2.1189920    0.3273877 
C     4.3514334   -1.7325366   -1.0089274 
H     4.6283397   -3.0554639    0.7880837 
H     3.9154569   -2.4019774   -1.7477089 
