48
Energy =
C    -3.6872940   -0.9457338   -2.6721069 
C    -2.8926975    0.1299042   -2.9037351 
C    -3.1423174   -2.1230296   -2.2632392 
C    -1.8044508   -2.2152738   -2.0880894 
C    -1.0057287   -1.1429977   -2.3169703 
C    -1.5459779    0.0361330   -2.7306744 
H    -3.3419833    1.0643771   -3.2295139 
H    -1.3818441   -3.1590994   -1.7623141 
H     0.0675299   -1.2355079   -2.1716945 
H    -4.7590875   -0.8612608   -2.8147168 
C    -0.6521024    1.2307716   -2.9695186 
C    -0.3412365    1.9909714   -1.6544121 
H    -1.1028998    1.9207766   -3.7179938 
H     0.2921739    0.8705014   -3.4409603 
C     1.0037949    2.6956615   -1.7492919 
O    -3.9320765   -3.2505108   -2.0155767 
H    -4.9228468   -3.1005758   -2.1722813 
O     1.0920364    3.8227811   -2.5583352 
N    -1.4217718    2.9360629   -1.3300060 
H    -0.2448135    1.2676900   -0.8113346 
H    -1.5304565    3.6343967   -2.1052814 
H    -2.3277973    2.4195509   -1.2432020 
N     2.1862387    1.9331172   -1.4184699 
C     3.5597310    2.5003459   -1.4327601 
H     2.0488011    0.9079181   -1.2973188 
C     3.7719786    3.7358745   -2.3240068 
O     4.1098260    3.5934712   -3.6644302 
O     3.6971712    5.0277324   -1.7981865 
H     3.2596552    5.0402382   -0.8890781 
C     4.6057838    1.3773375   -1.7169312 
H     3.7739934    2.8571774   -0.4019155 
C     4.2042880    0.4003999   -2.8154736 
H     4.7908485    0.8161748   -0.7768099 
H     5.5885951    1.8308360   -1.9790916 
C     3.6355175   -0.8107119   -2.6542815 
C     3.2956854   -1.4748676   -1.5166849 
C     2.7066211   -2.6996545   -1.6294155 
C     2.4694604   -3.2408096   -2.8618106 
C     2.8245364   -2.5624612   -3.9890336 
C     3.4079204   -1.3533789   -3.8519325 
H     3.4780228   -1.0511434   -0.5343308 
H     2.4251784   -3.2492997   -0.7342313 
H     1.9996236   -4.2178833   -2.9442446 
H     2.6461825   -2.9787723   -4.9748366 
N     3.8478038   -0.4944274   -4.8914771 
C     4.3533816    0.6158386   -4.1360172 
H     3.8178975   -0.6369407   -5.9274590 
H     4.8071520    1.4991263   -4.5797633 
