48
Energy =
C     0.3056194    0.3597226    2.5210563 
C     0.4088726    1.6307561    2.0564299 
C    -0.1101703   -0.6382910    1.6960961 
C    -0.4197752   -0.3570046    0.4105235 
C    -0.3206530    0.9120276   -0.0592018 
C     0.0901148    1.9162731    0.7641470 
H     0.7521493    2.4161080    2.7251670 
H    -0.7419952   -1.1632594   -0.2384313 
H    -0.5569969    1.1141139   -1.1013702 
H     0.5603447    0.1429333    3.5530622 
C     0.2517968    3.3241402    0.2324672 
C     1.7095671    3.6076871   -0.2009677 
H    -0.0555213    4.0490009    1.0183663 
H    -0.4338498    3.4899380   -0.6304272 
C     2.1576935    2.6713980   -1.3096284 
O    -0.2244810   -1.9585360    2.1421269 
H     0.0291852   -2.0881770    3.1155503 
O     1.5400232    2.7371485   -2.5549284 
N     1.8439356    5.0108168   -0.6201116 
H     2.3972135    3.4302180    0.6590686 
H     1.2264246    5.1994435   -1.4466112 
H     1.5505091    5.6510581    0.1540074 
N     2.9479282    1.5187452   -0.9903690 
C     4.2963538    1.3852864   -1.5779699 
H     2.5933665    0.8365954   -0.2831698 
C     5.0447882    2.7139285   -1.7272090 
O     6.0224110    3.0384461   -0.7949793 
O     4.7743581    3.6241059   -2.7490854 
H     3.9977030    3.3285865   -3.3211526 
C     4.2104924    0.5746038   -2.8887900 
H     4.9252192    0.8035966   -0.8650864 
C     3.7432010   -0.8404075   -2.6194441 
H     5.2120562    0.5345913   -3.3733989 
H     3.5283593    1.0707436   -3.6105851 
C     2.4867253   -1.3113751   -2.6965180 
C     1.3418803   -0.6907084   -3.0821135 
C     0.1791267   -1.4033328   -3.0668023 
C     0.1755859   -2.7097411   -2.6634250 
C     1.3356816   -3.3118388   -2.2763712 
C     2.4742331   -2.5877172   -2.3077109 
H     1.3412141    0.3457110   -3.4018344 
H    -0.7486432   -0.9291178   -3.3776222 
H    -0.7548584   -3.2718542   -2.6509851 
H     1.3502874   -4.3464028   -1.9506078 
N     3.7767267   -3.0218754   -1.9435887 
C     4.5372287   -1.8283186   -2.1701551 
H     4.0913496   -3.9588664   -1.6020919 
H     5.6033499   -1.7330134   -1.9771114 
