48
Energy =
C    -0.1199779   -3.3437005   -6.7569543 
C     1.0936921   -2.7317682   -6.7739185 
C    -1.0016375   -3.0929399   -5.7483536 
C    -0.6627309   -2.2297460   -4.7634329 
C     0.5486215   -1.6237473   -4.7853789 
C     1.4291422   -1.8571043   -5.7884858 
H     1.7872044   -2.9469023   -7.5822453 
H    -1.3667478   -2.0283395   -3.9632012 
H     0.9382699   -0.8467814   -3.9857412 
H    -0.3829260   -4.0360051   -7.5493570 
C     2.7994706   -1.1972386   -5.7479507 
C     2.7571965    0.2890540   -5.2720284 
H     3.2660894   -1.2553465   -6.7556006 
H     3.4460160   -1.7783160   -5.0411379 
C     2.4468492    0.4396220   -3.7664979 
O    -2.2556118   -3.7095852   -5.6994789 
H    -2.4426671   -4.3302406   -6.4791594 
O     1.2862820   -0.1227102   -3.2293784 
N     4.0263010    0.9343787   -5.6313698 
H     1.9221739    0.8324931   -5.7866662 
H     4.8241005    0.5485596   -5.0705237 
H     4.2345930    0.8229328   -6.6515077 
N     3.3495559    1.1245846   -2.8940873 
C     3.8206447    0.2336723   -1.8066696 
H     2.7802697    1.8966190   -2.4771430 
C     4.4898176    1.0477117   -0.6973672 
O     5.3492787    2.0898157   -1.0274968 
O     4.3038995    0.7460240    0.6535002 
H     3.7674267   -0.0975217    0.7837038 
C     4.8045703   -0.8227699   -2.3711394 
H     2.9504085   -0.2863996   -1.3432234 
C     5.1837285   -1.8418479   -1.3204075 
H     5.7122378   -0.3066396   -2.7611288 
H     4.3452725   -1.3781502   -3.2144238 
C     6.2551943   -1.8184999   -0.5111487 
C     7.2697557   -0.9195340   -0.4308352 
C     8.2423651   -1.1211146    0.5034737 
C     8.1878702   -2.2047859    1.3355629 
C     7.1570549   -3.0919856    1.2403428 
C     6.2072416   -2.8711795    0.3071678 
H     7.3091080   -0.0473267   -1.0767125 
H     9.0590564   -0.4088176    0.5923042 
H     8.9645872   -2.3534027    2.0812841 
H     7.0930610   -3.9509552    1.8986481 
N     5.0481452   -3.6550951    0.0600511 
C     4.4377314   -2.9133770   -1.0049155 
H     4.7344795   -4.5334471    0.5319024 
H     3.4904618   -3.1658591   -1.4774525 
