48
Energy =
C     0.0371171   -5.2688666    0.8826548 
C     0.2988829   -3.9390625    0.9543024 
C    -0.3062681   -5.8351478   -0.3051046 
C    -0.3849779   -5.0654563   -1.4142599 
C    -0.1240743   -3.7354043   -1.3487379 
C     0.2169133   -3.1630720   -0.1617083 
H     0.5771394   -3.5026483    1.9102470 
H    -0.6589806   -5.5289389   -2.3556200 
H    -0.1907285   -3.1346150   -2.2518878 
H     0.1045412   -5.8785288    1.7772115 
C     0.5238175   -1.6834640   -0.0922176 
C     1.9402983   -1.3523864   -0.6178974 
H     0.4134179   -1.3037654    0.9491737 
H    -0.2376830   -1.1338574   -0.6902681 
C     2.1198182    0.1491803   -0.7574533 
O    -0.5809603   -7.2023129   -0.4136980 
H    -0.5046778   -7.7089289    0.4615098 
O     1.8738626    0.9861049    0.3254546 
N     2.9719515   -1.9168636    0.2682443 
H     2.0652759   -1.7829375   -1.6385676 
H     2.8245043   -1.5758580    1.2490679 
H     2.9020176   -2.9614291    0.2786897 
N     2.6136980    0.7147849   -1.9776297 
C     3.9623389    1.3111746   -1.9259236 
H     2.0264889    0.6557836   -2.8391659 
C     4.1377081    2.3910766   -2.9891340 
O     4.5358301    3.6657007   -2.6070428 
O     3.9368559    2.1311299   -4.3470830 
H     3.6885334    1.1681328   -4.5091543 
C     5.0183598    0.1894005   -2.0503996 
H     4.0956297    1.8417101   -0.9502727 
C     6.4035381    0.6902281   -1.7036759 
H     5.0051870   -0.2587684   -3.0664273 
H     4.7655845   -0.6376542   -1.3499814 
C     7.3288692    1.1785380   -2.5461529 
C     7.2922141    1.3238771   -3.8958338 
C     8.3777113    1.8644685   -4.5198806 
C     9.4723718    2.2466382   -3.7949821 
C     9.4873757    2.0915726   -2.4406949 
C     8.4013230    1.5542474   -1.8462840 
H     6.4234914    1.0292252   -4.4751881 
H     8.3683018    1.9983266   -5.5989513 
H    10.3314494    2.6812600   -4.2997680 
H    10.3448792    2.3948127   -1.8498923 
N     8.2113469    1.3202557   -0.4579456 
C     6.8895227    0.7657858   -0.4521108 
H     8.8624483    1.4995636    0.3403508 
H     6.3506392    0.4661197    0.4445292 
