48
Energy =
C     0.2808382    6.1038810    1.4023262 
C    -0.1830902    4.8814517    1.0391100 
C     1.6088593    6.2932559    1.6268713 
C     2.4659756    5.2576991    1.4730162 
C     2.0051833    4.0310833    1.1213375 
C     0.6746979    3.8327562    0.9091276 
H    -1.2432520    4.7474652    0.8461741 
H     3.5287341    5.4226852    1.6150883 
H     2.7159326    3.2205771    0.9763040 
H    -0.4112582    6.9308717    1.5084780 
C     0.1601303    2.4738450    0.4814624 
C     0.1852948    2.3063968   -1.0569475 
H    -0.8779735    2.3352074    0.8525536 
H     0.7658924    1.6747677    0.9596205 
C     1.6060899    2.3694054   -1.6256446 
O     2.1113287    7.5390393    2.0225075 
H     1.4219233    8.2805893    2.0168827 
O     2.0571121    3.6389137   -1.9709401 
N    -0.5279658    1.0692132   -1.4284599 
H    -0.3320545    3.1719985   -1.5365254 
H    -0.0799873    0.2302288   -0.9941324 
H    -1.5245737    1.1127960   -1.1148037 
N     2.5260355    1.2871827   -1.3442288 
C     3.9775055    1.3249418   -1.6494984 
H     2.2044537    0.5886122   -0.6539735 
C     4.5787653    2.6740406   -2.0226713 
O     4.9293519    3.5565217   -1.0047472 
O     4.9194789    2.9855368   -3.3237733 
H     4.2307594    2.3244741   -3.9928405 
C     4.2859463    0.1864990   -2.6475846 
H     4.5496270    1.1189090   -0.7209991 
C     3.4681659    0.2914294   -3.9150360 
H     4.1515221   -0.7918777   -2.1580981 
H     5.3580201    0.2517761   -2.9467771 
C     2.7648981   -0.6912552   -4.4969756 
C     2.5129588   -1.9583392   -4.0655396 
C     1.7751950   -2.7876820   -4.8591123 
C     1.3104177   -2.3474135   -6.0647979 
C     1.5850990   -1.0785139   -6.4779896 
C     2.3156241   -0.2765040   -5.6681342 
H     2.8775960   -2.3109856   -3.1113003 
H     1.5598710   -3.7990842   -4.5292749 
H     0.7250882   -3.0074616   -6.6973665 
H     1.2339854   -0.7099096   -7.4341539 
N     2.7178071    1.0496137   -5.9556616 
C     3.4378767    1.5612550   -4.7674182 
H     2.5501583    1.5710094   -6.8430381 
H     3.5040158    2.5138342   -5.3518353 
