48
Energy =
C    -3.1583433   -0.2955061   -2.6293881 
C    -1.9517704    0.3063751   -2.4782051 
C    -4.3038768    0.4149900   -2.4491777 
C    -4.2331324    1.7243940   -2.1177447 
C    -3.0290548    2.3317722   -1.9647804 
C    -1.8800213    1.6256012   -2.1475864 
H    -1.0445395   -0.2754934   -2.6222215 
H    -5.1541265    2.2790874   -1.9752873 
H    -2.9942986    3.3838147   -1.6938609 
H    -3.2045356   -1.3465428   -2.8931303 
C    -0.5333934    2.2883074   -1.9663771 
C     0.1019342    1.9465448   -0.5978842 
H    -0.6115600    3.3934641   -2.0804884 
H     0.1352619    1.9530709   -2.7916661 
C     1.5925417    2.2558936   -0.6145056 
O    -5.5634705   -0.1749045   -2.5968214 
H    -5.5314673   -1.1579142   -2.8436907 
O     1.9838879    3.5888367   -0.5808915 
N    -0.5792533    2.6676519    0.4890436 
H     0.0063372    0.8532182   -0.4026659 
H    -0.5260728    3.7024139    0.3262240 
H    -1.5905840    2.3991958    0.5183613 
N     2.5071753    1.2191818   -1.0397253 
C     3.9734111    1.4102965   -1.2092304 
H     2.0650454    0.3442377   -1.3955000 
C     4.4638484    2.8643876   -1.2252165 
O     4.5060348    3.5698947   -2.4250020 
O     4.9344151    3.4849231   -0.0655913 
H     4.6761467    2.9724415    0.7646541 
C     4.4461679    0.6752775   -2.4911562 
H     4.4810216    0.9327881   -0.3427949 
C     4.2286469   -0.8225652   -2.4253259 
H     5.5338721    0.8579772   -2.6483524 
H     3.9354721    1.1098014   -3.3779996 
C     3.2442778   -1.5289173   -3.0090620 
C     2.2189847   -1.1138831   -3.7998800 
C     1.3311617   -2.0446686   -4.2526807 
C     1.4775100   -3.3610191   -3.9134441 
C     2.5126103   -3.7548641   -3.1184516 
C     3.3790159   -2.8158521   -2.6837038 
H     2.0944500   -0.0698673   -4.0691794 
H     0.5035322   -1.7386922   -4.8883848 
H     0.7662676   -4.0974076   -4.2793204 
H     2.6414110   -4.7947485   -2.8378001 
N     4.5048245   -3.0122864   -1.8400694 
C     4.9959961   -1.6711721   -1.7193389 
H     4.8719638   -3.8965511   -1.4191564 
H     5.8645975   -1.3854725   -1.1301790 
