48
Energy =
C    -0.9143358   -0.4514966    1.2786273 
C     0.3097205    0.0422217    0.9621512 
C    -1.4928863   -0.1356922    2.4670132 
C    -0.8434921    0.6760111    3.3306478 
C     0.3794993    1.1751214    3.0194008 
C     0.9680894    0.8585487    1.8318789 
H     0.7455078   -0.2177354    0.0035028 
H    -1.3189370    0.9230342    4.2737175 
H     0.8767246    1.8311447    3.7288769 
H    -1.4316338   -1.0968896    0.5767083 
C     2.3307146    1.4275841    1.4820016 
C     2.2715346    2.6034612    0.4660979 
H     2.9833879    0.6094650    1.1075375 
H     2.8344319    1.7911101    2.4054038 
C     2.0070481    2.1386935   -0.9724758 
O    -2.7508841   -0.6303704    2.8249519 
H    -3.1820618   -1.2125948    2.1152215 
O     0.7907221    2.4308354   -1.5761773 
N     1.3030627    3.6246651    0.9092644 
H     3.2694735    3.1008588    0.4246340 
H     0.3205658    3.2727555    0.7975917 
H     1.4466852    3.8629300    1.9179228 
N     2.8752351    1.2088470   -1.6563068 
C     4.3160317    1.5501095   -1.5896921 
H     2.7055565    0.2681551   -1.2406030 
C     4.6089386    2.9927504   -1.9956543 
O     5.3456804    3.7878111   -1.1281202 
O     4.1615227    3.5341535   -3.1963862 
H     3.5352007    2.8971063   -3.6680704 
C     5.1070774    0.5766135   -2.4880081 
H     4.6888660    1.4376117   -0.5466233 
C     5.1155928   -0.8257414   -1.9231232 
H     6.1593702    0.9240834   -2.6014813 
H     4.6653154    0.5717544   -3.5099652 
C     5.8530098   -1.2709897   -0.8944228 
C     6.7800997   -0.6224670   -0.1436776 
C     7.3887708   -1.3072458    0.8668436 
C     7.0637407   -2.6136382    1.1098090 
C     6.1279511   -3.2431742    0.3432199 
C     5.5416232   -2.5449100   -0.6516893 
H     7.0401395    0.4150113   -0.3374377 
H     8.1384242   -0.8121230    1.4804203 
H     7.5545464   -3.1535064    1.9162307 
H     5.8578706   -4.2784845    0.5228106 
N     4.5417226   -3.0035320   -1.5509200 
C     4.3196530   -1.8261377   -2.3389269 
H     4.0842463   -3.9424136   -1.6125536 
H     3.5930548   -1.7508092   -3.1459514 
