48
Energy =
C    -1.0986174    0.9948558    0.0962137 
C    -0.5319601    2.2045213    0.3386283 
C    -0.5337769   -0.1364629    0.5963293 
C     0.5958925   -0.0496898    1.3348266 
C     1.1682732    1.1564754    1.5780890 
C     0.6026222    2.2922124    1.0868443 
H    -0.9802640    3.1027797   -0.0859291 
H     1.0378803   -0.9601235    1.7248229 
H     2.0813990    1.2041361    2.1654548 
H    -2.0000674    0.9333875   -0.5046088 
C     1.2627944    3.6333528    1.3179332 
C     2.3394367    3.9259315    0.2473105 
H     1.7236208    3.6470268    2.3303594 
H     0.4989170    4.4448819    1.3127085 
C     1.7436775    3.9677672   -1.1533261 
O    -1.0892664   -1.3979294    0.3626057 
H    -1.9316618   -1.3793103   -0.2021494 
O     0.7417592    4.8910415   -1.4291693 
N     3.0255393    5.1896903    0.5569226 
H     3.0928876    3.1082512    0.2596688 
H     2.3369364    5.9811081    0.5152995 
H     3.4122321    5.1591110    1.5290387 
N     1.8879461    2.8461335   -2.0319391 
C     3.1991300    2.6304281   -2.6662463 
H     1.0890306    2.1809521   -2.1400701 
C     3.0743431    2.6711205   -4.1899369 
O     2.0667185    1.9423888   -4.8138601 
O     4.0046068    3.3412124   -4.9875055 
H     4.7262571    3.7891190   -4.4431585 
C     3.7488693    1.2732058   -2.1842347 
H     3.9075227    3.4364479   -2.3632627 
C     5.1966383    1.0847729   -2.5802930 
H     3.1211743    0.4430205   -2.5795138 
H     3.6716223    1.2099965   -1.0776088 
C     5.6658043    0.4947368   -3.6923264 
C     4.9981645   -0.0998302   -4.7148578 
C     5.7228617   -0.6215646   -5.7456241 
C     7.0879319   -0.5432125   -5.7401660 
C     7.7370927    0.0597943   -4.7042752 
C     6.9982364    0.5684388   -3.6958541 
H     3.9138574   -0.1562886   -4.7306878 
H     5.2104559   -1.0954597   -6.5795665 
H     7.6572150   -0.9577924   -6.5682528 
H     8.8189410    0.1357075   -4.6879173 
N     7.4739037    1.2432710   -2.5395283 
C     6.2425527    1.5493700   -1.8744418 
H     8.4572285    1.4562338   -2.2545393 
H     6.1716292    2.0963562   -0.9377104 
