48
Energy =
C     1.8122317   -0.9623877    5.1018284 
C     1.8808913   -1.4686998    3.8446184 
C     0.9956354    0.0905935    5.3708815 
C     0.2507553    0.6281232    4.3792508 
C     0.3134087    0.1239667    3.1213145 
C     1.1383599   -0.9227959    2.8401014 
H     2.5340045   -2.3147237    3.6498473 
H    -0.3972221    1.4678313    4.6053776 
H    -0.3010637    0.5675967    2.3429155 
H     2.4102823   -1.4035460    5.8920150 
C     1.2125494   -1.4965357    1.4354528 
C     2.3482444   -0.9203419    0.5432593 
H     0.2355937   -1.3562899    0.9208385 
H     1.3477925   -2.5985268    1.5080878 
C     2.0528118    0.4581126   -0.0365115 
O     0.8998273    0.6343977    6.6557544 
H     1.4973313    0.1841182    7.3403371 
O     1.3774190    1.4183717    0.7023849 
N     3.6530033   -0.9484114    1.2256060 
H     2.4091856   -1.5881905   -0.3433257 
H     3.6441194   -0.2860384    2.0391388 
H     3.8414769   -1.9107262    1.5914413 
N     2.4576644    0.7951343   -1.3693552 
C     3.9022243    0.9682548   -1.6210512 
H     1.7405306    0.7804940   -2.1274735 
C     4.2426693    2.4449776   -1.8141257 
O     4.8297417    2.8802001   -2.9978955 
O     4.0119553    3.3793155   -0.8061028 
H     3.4941275    2.9790316   -0.0354698 
C     4.3210887    0.1124680   -2.8399221 
H     4.5092288    0.6484185   -0.7415071 
C     4.0728848   -1.3617718   -2.6147295 
H     5.4077961    0.2582851   -3.0370615 
H     3.8001599    0.4697874   -3.7543908 
C     3.0428206   -2.0931465   -3.0730150 
C     1.9939933   -1.7327952   -3.8579160 
C     1.0592405   -2.6773995   -4.1651997 
C     1.1827576   -3.9526623   -3.6879054 
C     2.2424026   -4.2917300   -2.9005968 
C     3.1557078   -3.3411038   -2.6133257 
H     1.8898480   -0.7227566   -4.2401114 
H     0.2118472   -2.4155790   -4.7947305 
H     0.4338295   -4.7000737   -3.9381853 
H     2.3544921   -5.2983375   -2.5121261 
N     4.3111297   -3.4813279   -1.7998526 
C     4.8461617   -2.1524866   -1.8502016 
H     4.6677055   -4.3228259   -1.2914483 
H     5.7376530   -1.8272693   -1.3179771 
