48
Energy =
C    -1.2558048    0.3522229    0.5522495 
C    -0.2805216    1.2601906    0.8086531 
C    -1.9457288    0.4025792   -0.6182728 
C    -1.6574401    1.3648994   -1.5235505 
C    -0.6852308    2.2768886   -1.2709913 
C     0.0079644    2.2311720   -0.0997515 
H     0.2741067    1.1985632    1.7415229 
H    -2.2118093    1.3924691   -2.4556892 
H    -0.4577995    3.0352816   -2.0176066 
H    -1.4769141   -0.4189550    1.2820279 
C     1.1266905    3.2137544    0.1676680 
C     2.4900129    2.6592589   -0.3060680 
H     1.1683985    3.4353021    1.2569597 
H     0.9153240    4.1834703   -0.3395370 
C     2.5248322    2.4688117   -1.8133450 
O    -2.9490240   -0.5237516   -0.9175554 
H    -3.1157833   -1.2046344   -0.1846929 
O     2.2723394    3.5555797   -2.6423561 
N     3.5744112    3.5543539    0.1234174 
H     2.6551156    1.6615487    0.1558509 
H     3.4263543    4.5102437   -0.2832408 
H     3.5662849    3.6465018    1.1660306 
N     2.5077075    1.1557433   -2.3842156 
C     3.7977494    0.4491900   -2.4802620 
H     1.5899225    0.7169682   -2.6207641 
C     4.3316488    0.4833122   -3.9153872 
O     4.4556245   -0.6952059   -4.6459611 
O     4.7310963    1.6785867   -4.5125055 
H     4.4844817    2.4771984   -3.9440703 
C     3.6272299   -0.9970030   -1.9641098 
H     4.5719661    0.9530828   -1.8566684 
C     3.2193104   -1.0434863   -0.5096619 
H     4.5807196   -1.5577180   -2.0877324 
H     2.8720991   -1.5269795   -2.5880663 
C     4.0106929   -0.8332257    0.5536625 
C     5.3358932   -0.5442006    0.6088767 
C     5.9073512   -0.3570668    1.8330097 
C     5.1545318   -0.4609202    2.9701258 
C     3.8252196   -0.7532356    2.8898330 
C     3.2835885   -0.9347107    1.6672646 
H     5.9348849   -0.4611692   -0.2933106 
H     6.9674181   -0.1249109    1.9043797 
H     5.6184264   -0.3118019    3.9420329 
H     3.2143814   -0.8402936    3.7818991 
N     1.9286003   -1.2341734    1.3638464 
C     1.9703498   -1.2756447   -0.0691210 
H     1.1180598   -1.3648133    2.0109961 
H     1.1068477   -1.4606891   -0.7050399 
