48
Energy =
C    -1.6324581   -0.0505017    2.0384467 
C    -0.3966904    0.4088248    2.3595082 
C    -2.2819284    0.4400066    0.9491916 
C    -1.6886155    1.3869449    0.1875129 
C    -0.4529357    1.8500907    0.5037944 
C     0.2006434    1.3651794    1.5957298 
H     0.1138633    0.0031366    3.2288551 
H    -2.2156146    1.7675246   -0.6808380 
H     0.0050803    2.6081183   -0.1253033 
H    -2.0983704   -0.8129599    2.6532534 
C     1.5908700    1.8576361    1.9404183 
C     2.6806475    0.8354855    1.5467519 
H     1.6446531    2.0493671    3.0346733 
H     1.7948006    2.8349518    1.4477201 
C     2.6559095    0.5137461    0.0628570 
O    -3.5569771   -0.0097110    0.5914635 
H    -3.9277378   -0.7292350    1.2025768 
O     2.3203690   -0.7642316   -0.3704369 
N     4.0024161    1.3366206    1.9603748 
H     2.4842534   -0.1322574    2.0669552 
H     4.1712152    2.2920813    1.5604499 
H     4.0340873    1.4280556    3.0033807 
N     2.9902487    1.5094410   -0.9065852 
C     4.3275531    1.4190636   -1.5188762 
H     2.3151148    2.2793524   -1.1111443 
C     4.9005287    2.7955491   -1.8314715 
O     4.0623165    3.9002691   -1.9269623 
O     6.2629901    2.9719784   -2.0756760 
H     6.7865656    2.1152256   -1.9722545 
C     4.2591738    0.5223253   -2.7748921 
H     5.0417660    0.9628254   -0.7938891 
C     3.1690217    0.9516913   -3.7350111 
H     4.0557390   -0.5237359   -2.4505945 
H     5.2411032    0.4986243   -3.2949677 
C     3.2635177    1.8556319   -4.7236662 
C     4.3297966    2.5855346   -5.1415070 
C     4.1553554    3.4527149   -6.1797195 
C     2.9327879    3.5752820   -6.7798108 
C     1.8761208    2.8326956   -6.3436126 
C     2.0731997    1.9825474   -5.3141894 
H     5.3003878    2.4987628   -4.6625113 
H     4.9920370    4.0548333   -6.5261011 
H     2.8013758    4.2717697   -7.6040803 
H     0.8985829    2.9212927   -6.8052556 
N     1.1093556    1.1329194   -4.7075665 
C     1.9008587    0.5053617   -3.6894103 
H     0.0977636    1.0029635   -4.9396488 
H     1.5214650   -0.2128486   -2.9625992 
