48
Energy =
C    -3.1475520    0.4405912    1.9721512 
C    -1.7989025    0.5006122    1.8324237 
C    -3.9459916    1.2900078    1.2718719 
C    -3.3881852    2.1947352    0.4356920 
C    -2.0403639    2.2592187    0.2918415 
C    -1.2366530    1.4128847    0.9922484 
H    -1.1744224   -0.1883014    2.3956646 
H    -4.0356938    2.8663576   -0.1172887 
H    -1.6111957    2.9923125   -0.3863065 
H    -3.5859644   -0.2891319    2.6442613 
C     0.2650308    1.4746621    0.8200317 
C     0.7389114    0.7966255   -0.4874572 
H     0.7852156    1.0111859    1.6888767 
H     0.5812784    2.5424217    0.8237033 
C     2.2070701    1.1051840   -0.7452865 
O    -5.3390954    1.2532535    1.3913051 
H    -5.6790326    0.5534123    2.0417855 
O     3.1256351    1.0007564    0.2965820 
N     0.5151256   -0.6569234   -0.4325796 
H     0.1620167    1.2157192   -1.3430765 
H     1.0234994   -1.0588055    0.3928126 
H    -0.5047229   -0.8578997   -0.3091298 
N     2.6358135    1.6110023   -2.0206720 
C     4.0238559    1.3268655   -2.4395525 
H     1.9567148    2.1193322   -2.6303614 
C     4.5703663    2.4416545   -3.3198254 
O     5.7328385    3.0986447   -2.9373774 
O     3.9671858    2.7965815   -4.5280109 
H     3.1626507    2.2236859   -4.7301037 
C     4.0861160   -0.0372738   -3.1658518 
H     4.7044142    1.3220841   -1.5534705 
C     4.0503606   -1.1954027   -2.1940717 
H     5.0222537   -0.1143109   -3.7645405 
H     3.2434855   -0.1205776   -3.8872478 
C     5.0613867   -1.6260019   -1.4237699 
C     6.3362637   -1.1685258   -1.3260666 
C     7.1801687   -1.7856337   -0.4501365 
C     6.7426728   -2.8384000    0.3055003 
C     5.4579824   -3.2804394    0.1896705 
C     4.6423718   -2.6536094   -0.6838478 
H     6.6847861   -0.3303574   -1.9231498 
H     8.2050525   -1.4359676   -0.3500799 
H     7.4208575   -3.3228980    1.0033819 
H     5.0943042   -4.1120650    0.7832034 
N     3.2798131   -2.9520589   -0.9533316 
C     2.9716849   -1.9554262   -1.9391031 
H     2.6713885   -3.6986057   -0.5465323 
H     1.9905460   -1.8108690   -2.3876681 
