48
Energy =
C     0.3916781   -4.3269782    2.5201085 
C     0.3392331   -3.0251992    2.1388790 
C     0.4977290   -5.3097543    1.5857361 
C     0.5475731   -4.9825622    0.2745226 
C     0.4941415   -3.6835306   -0.1121737 
C     0.3876289   -2.6960073    0.8190517 
H     0.2649930   -2.2506212    2.8978954 
H     0.6340642   -5.7741375   -0.4616378 
H     0.5447448   -3.4400147   -1.1705381 
H     0.3533077   -4.5798554    3.5741445 
C     0.3719280   -1.2472388    0.3849277 
C     1.7885788   -0.7553962    0.0033864 
H    -0.0608121   -0.5908432    1.1727818 
H    -0.3102660   -1.1468799   -0.4899144 
C     1.7623624    0.5401836   -0.7934057 
O     0.5607985   -6.6601002    1.9447570 
H     0.5090691   -6.8235134    2.9443739 
O     0.6293311    1.3446625   -0.7804950 
N     2.6312249   -0.6136352    1.2027733 
H     2.2432289   -1.5059489   -0.6772043 
H     2.1539340   -0.0031586    1.9091505 
H     2.7815211   -1.5536181    1.6402411 
N     2.7465358    0.7744780   -1.8080528 
C     4.1381304    1.0138493   -1.3745121 
H     2.4474535    0.7157091   -2.8059445 
C     4.5344385    2.4738220   -1.5457664 
O     5.1502478    3.1320606   -0.4885519 
O     4.3743755    3.1515629   -2.7549494 
H     3.9007298    2.5853660   -3.4404617 
C     5.0918885    0.0805262   -2.1531111 
H     4.2580755    0.8155448   -0.2816886 
C     4.8596926   -1.3723628   -1.7982683 
H     6.1479927    0.3354947   -1.9041576 
H     4.9861361    0.2420805   -3.2468769 
C     4.1289788   -2.2721045   -2.4790784 
C     3.4506061   -2.1430845   -3.6486460 
C     2.7417494   -3.2139309   -4.1092374 
C     2.7176048   -4.3833113   -3.4005627 
C     3.4029201   -4.4893657   -2.2273584 
C     4.1015620   -3.4189944   -1.7961377 
H     3.4627509   -1.2157754   -4.2114995 
H     2.1932733   -3.1374006   -5.0453188 
H     2.1508837   -5.2327912   -3.7741849 
H     3.3897180   -5.4069582   -1.6481011 
N     4.8429531   -3.3114930   -0.5907291 
C     5.2968459   -1.9539724   -0.6671275 
H     5.0061299   -4.0283987    0.1536957 
H     5.8798477   -1.4562786    0.1051172 
