48
Energy =
C    -2.3233475   -2.2369710    1.7321445 
C    -1.1645596   -1.5628194    1.5207818 
C    -2.9322796   -2.8882199    0.7053336 
C    -2.3768113   -2.8592658   -0.5273903 
C    -1.2181966   -2.1867923   -0.7446398 
C    -0.6025178   -1.5369766    0.2809796 
H    -0.6900945   -1.0441274    2.3506091 
H    -2.8737843   -3.3805954   -1.3381702 
H    -0.7917798   -2.1708991   -1.7440108 
H    -2.7622447   -2.2528117    2.7239339 
C     0.6796798   -0.7707124    0.0443982 
C     0.4308961    0.7498122   -0.0923335 
H     1.2047464   -1.1526669   -0.8578830 
H     1.3693003   -0.9610504    0.8997117 
C     1.7396709    1.5185206   -0.0324091 
O    -4.1272217   -3.5915849    0.8886223 
H    -4.4790642   -3.5652902    1.8394589 
O     2.5088518    1.4624837    1.1241435 
N    -0.3243092    1.0443070   -1.3243143 
H    -0.1451729    1.1144990    0.7911999 
H     0.1359355    0.5932574   -2.1499268 
H    -1.2923793    0.6506607   -1.2486051 
N     2.1731958    2.3463560   -1.1175745 
C     3.5489308    2.1481376   -1.6060800 
H     1.5095243    3.0549719   -1.5091266 
C     4.0892705    3.4219268   -2.2506762 
O     3.2806695    4.1446219   -3.1210966 
O     5.4070802    3.8422172   -2.0622898 
H     5.9327089    3.2207687   -1.4658946 
C     3.5504909    0.9680379   -2.5988395 
H     4.2166991    1.9181839   -0.7427171 
C     4.9557350    0.5649556   -2.9871606 
H     2.9494205    1.2276310   -3.4987358 
H     3.0475573    0.0936069   -2.1323390 
C     5.6668075    1.0062927   -4.0381347 
C     5.3245053    1.8800395   -5.0199566 
C     6.2494111    2.1728119   -5.9784445 
C     7.4883926    1.5952951   -5.9428382 
C     7.8110801    0.7228983   -4.9462451 
C     6.8788531    0.4489432   -4.0095124 
H     4.3466285    2.3519693   -5.0465490 
H     6.0015413    2.8764433   -6.7698214 
H     8.2212038    1.8386039   -6.7081947 
H     8.7918026    0.2619024   -4.8993050 
N     7.0168227   -0.4115690   -2.8873538 
C     5.7289058   -0.2734930   -2.2749453 
H     7.8372294   -0.9887634   -2.5912188 
H     5.4319085   -0.7676031   -1.3525579 
