48
Energy =
C     3.2454870   -4.9175681   -3.5545106 
C     3.0442642   -3.5926218   -3.3414331 
C     2.3980627   -5.8332448   -3.0133142 
C     1.3538111   -5.4153981   -2.2621670 
C     1.1477486   -4.0915280   -2.0457068 
C     1.9920291   -3.1713879   -2.5871010 
H     3.7291349   -2.8715088   -3.7802077 
H     0.6857704   -6.1556904   -1.8359492 
H     0.3051570   -3.7761982   -1.4358717 
H     4.0857072   -5.2427287   -4.1582333 
C     1.7811834   -1.6950857   -2.3376861 
C     2.7223155   -1.1482641   -1.2388467 
H     0.7218897   -1.4815314   -2.0680757 
H     1.9565790   -1.1471093   -3.2917830 
C     2.7183789    0.3707483   -1.2421414 
O     2.5779497   -7.2062138   -3.2116673 
H     3.3788400   -7.4373932   -3.7890959 
O     1.5218372    1.0497164   -1.0410800 
N     2.3398186   -1.6671183    0.0847897 
H     3.7657297   -1.4656736   -1.4558163 
H     1.3423924   -1.4164159    0.2907664 
H     2.4154192   -2.7110263    0.0957361 
N     3.9446870    1.0967981   -1.0903791 
C     4.7020773    1.4872978   -2.2958561 
H     4.2612316    1.3288496   -0.1227558 
C     3.7989363    1.9699195   -3.4374606 
O     3.1825292    1.0404523   -4.2697423 
O     3.5584827    3.3262882   -3.6594408 
H     3.9413643    3.9040988   -2.9260962 
C     5.6319765    0.3280639   -2.7181830 
H     5.3478969    2.3480579   -2.0140240 
C     6.7056800    0.7925436   -3.6798645 
H     5.0445060   -0.5015042   -3.1637393 
H     6.1306626   -0.0877399   -1.8145184 
C     6.7250529    0.6531516   -5.0169084 
C     5.8345651    0.0528637   -5.8492530 
C     6.0938272    0.0548208   -7.1882282 
C     7.2274915    0.6464136   -7.6718617 
C     8.1092035    1.2402870   -6.8189433 
C     7.8302696    1.2266773   -5.4985671 
H     4.9314441   -0.4173794   -5.4753883 
H     5.3915338   -0.4126977   -7.8746422 
H     7.4248917    0.6462478   -8.7410635 
H     9.0122412    1.7160854   -7.1860435 
N     8.6104174    1.7882477   -4.4531039 
C     7.8099241    1.4652154   -3.3099471 
H     9.5224442    2.2973526   -4.5043751 
H     8.0617458    1.7378023   -2.2878509 
