48
Energy =
C     1.1316729    4.9451829   -1.4479660 
C     0.8818142    3.6916943   -1.9021063 
C     0.3756267    5.4730170   -0.4493246 
C    -0.6286634    4.7417163    0.0858736 
C    -0.8836361    3.4875115   -0.3661418 
C    -0.1263595    2.9522865   -1.3621737 
H     1.4967316    3.2841824   -2.7016668 
H    -1.2256671    5.1739298    0.8813508 
H    -1.6957673    2.9168490    0.0752993 
H     1.9398091    5.5225958   -1.8851991 
C    -0.3988400    1.5493766   -1.8661963 
C     0.3179706    0.4444759   -1.0455487 
H    -0.0820481    1.4687549   -2.9305289 
H    -1.4948009    1.3608689   -1.8762204 
C     1.8291441    0.6524580   -0.9638929 
O     0.6070060    6.7618453    0.0438770 
H     1.3791689    7.2444784   -0.4036640 
O     2.4676636    0.6579414    0.2770859 
N    -0.2992101    0.2965648    0.2836645 
H     0.1913404   -0.5198611   -1.5861869 
H    -0.0208418    1.1042819    0.8908444 
H    -1.3419981    0.2862986    0.2104876 
N     2.5806705    0.8561558   -2.1805157 
C     4.0086913    1.2157494   -1.9779509 
H     2.4737097   -0.0027292   -2.7642084 
C     4.3441307    2.4507808   -2.8059484 
O     4.7332799    2.3148850   -4.1335619 
O     4.2185805    3.7381577   -2.2775727 
H     3.9048303    3.7213325   -1.3173563 
C     4.9517623    0.0324865   -2.3244739 
H     4.2238313    1.5202367   -0.9335428 
C     4.6141406   -1.2372077   -1.5692093 
H     6.0047154    0.3160593   -2.1070323 
H     4.9044557   -0.1632869   -3.4204311 
C     4.7910724   -1.4794126   -0.2596279 
C     5.3065114   -0.6856515    0.7131328 
C     5.3732568   -1.1762907    1.9851021 
C     4.9333889   -2.4414505    2.2605096 
C     4.4218479   -3.2219850    1.2669864 
C     4.3633092   -2.7123157    0.0188494 
H     5.6427755    0.3215748    0.4956333 
H     5.7680520   -0.5556678    2.7863837 
H     4.9839965   -2.8247702    3.2766926 
H     4.0643258   -4.2260706    1.4686731 
N     3.8711207   -3.3562240   -1.1473410 
C     4.0690700   -2.3322714   -2.1297747 
H     3.4767753   -4.3188936   -1.2548209 
H     3.8116871   -2.4348481   -3.1815709 
