48
Energy =
C     4.6699290   -0.2438827    2.3955016 
C     3.6619847    0.5347745    1.9270174 
C     4.4117772   -1.5026808    2.8379410 
C     3.1423210   -1.9657572    2.8288709 
C     2.1316283   -1.1921743    2.3595205 
C     2.3877516    0.0573177    1.8806433 
H     3.8878906    1.5400242    1.5840959 
H     2.9471007   -2.9658582    3.1996112 
H     1.1184880   -1.5829873    2.3670771 
H     5.6854162    0.1395126    2.4045807 
C     1.2610463    0.9157068    1.3364261 
C     0.8384250    0.6172341   -0.1311923 
H     1.5269376    1.9935410    1.4203632 
H     0.3723546    0.7864868    1.9928568 
C     1.7747175    1.1567894   -1.2098874 
O     5.4297970   -2.3411027    3.3020942 
H     6.3559794   -1.9295013    3.2421690 
O     1.2402074    1.9771848   -2.1964261 
N     0.5042917   -0.8017851   -0.3391276 
H    -0.0970384    1.1999272   -0.3065188 
H     1.3418741   -1.4065130   -0.1910520 
H    -0.2262706   -1.0937617    0.3503370 
N     3.2014370    1.1106868   -1.1118630 
C     3.8976998   -0.1647436   -1.3655159 
H     3.6810343    1.9564923   -0.7296425 
C     5.3908411   -0.0320982   -1.0643621 
O     6.0897921    1.0755684   -1.5289627 
O     6.1006807   -1.0320128   -0.3954956 
H     5.5134218   -1.7970615   -0.0969103 
C     3.6843665   -0.5975305   -2.8403794 
H     3.5085206   -0.9324003   -0.6662247 
C     2.5617303   -1.6055995   -2.9796280 
H     4.6052086   -1.0746299   -3.2471578 
H     3.5189702    0.3058154   -3.4677861 
C     1.3370985   -1.4220750   -3.5081318 
C     0.7757456   -0.3198997   -4.0688653 
C    -0.5057182   -0.4047614   -4.5308011 
C    -1.1976732   -1.5793414   -4.4351718 
C    -0.6139939   -2.6757564   -3.8754714 
C     0.6518493   -2.5656018   -3.4214634 
H     1.3141314    0.6197795   -4.1403595 
H    -0.9824385    0.4699231   -4.9688820 
H    -2.2196881   -1.6385611   -4.8025738 
H    -1.1495302   -3.6157470   -3.7908213 
N     1.4318291   -3.5846238   -2.8137557 
C     2.6526597   -2.8808850   -2.5598540 
H     1.1800279   -4.5796166   -2.6084385 
H     3.5288934   -3.3233525   -2.0892436 
