48
Energy =
C    -2.3095670   -1.5568232   -0.4773565 
C    -1.6502220   -0.3741114   -0.5675737 
C    -1.7186489   -2.6249562    0.1217239 
C    -0.4699250   -2.5012713    0.6254280 
C     0.1931797   -1.3207651    0.5394663 
C    -0.3932602   -0.2473418   -0.0581294 
H    -2.1348164    0.4683404   -1.0533036 
H    -0.0066163   -3.3604166    1.0966357 
H     1.1950540   -1.2458166    0.9497368 
H    -3.3098413   -1.6460315   -0.8865817 
C     0.3486668    1.0695711   -0.1709731 
C     1.2836144    1.1445402   -1.4045915 
H     0.9398795    1.2438863    0.7550356 
H    -0.3785842    1.9100607   -0.2169529 
C     2.4541511    0.1708305   -1.3066143 
O    -2.3721880   -3.8572550    0.2339848 
H    -3.2978585   -3.8695331   -0.1794190 
O     2.5917542   -0.8880127   -2.2002290 
N     0.5209688    0.9813591   -2.6548337 
H     1.7468624    2.1570805   -1.4223993 
H     0.1917248   -0.0104077   -2.7422174 
H    -0.3211181    1.6014201   -2.6489700 
N     3.4786608    0.3664151   -0.3183882 
C     4.7380896    1.0072823   -0.7407285 
H     3.3082981    0.0477341    0.6610453 
C     4.5268812    2.4805175   -1.0886210 
O     4.6994769    2.9286923   -2.3929064 
O     4.1287705    3.3986731   -0.1192920 
H     3.9712880    2.9515346    0.7716345 
C     5.3845624    0.1889084   -1.8839012 
H     5.4335653    1.0015128    0.1281619 
C     6.8442928    0.5380030   -2.0768011 
H     4.8169174    0.3472561   -2.8315808 
H     5.2852041   -0.8974182   -1.6648731 
C     7.8803164    0.0546338   -1.3738794 
C     7.8982445   -0.8537378   -0.3646069 
C     9.0994831   -1.1744839    0.1964172 
C    10.2504265   -0.5874694   -0.2523480 
C    10.2070685    0.3246222   -1.2648711 
C     9.0070920    0.6233018   -1.8051712 
H     6.9852457   -1.3190965   -0.0040359 
H     9.1423323   -1.9002596    1.0053707 
H    11.2039382   -0.8475336    0.2009854 
H    11.1101169    0.8024447   -1.6298258 
N     8.7414045    1.5474142   -2.8503796 
C     7.3147174    1.4372384   -2.9605576 
H     9.4073668    2.1433412   -3.3942551 
H     6.6990723    2.0244485   -3.6439194 
