48
Energy =
C    -2.2728655   -2.0672595   -2.5565752 
C    -1.2687225   -1.2069977   -2.8619642 
C    -2.4181562   -2.5244123   -1.2840524 
C    -1.5572719   -2.1153395   -0.3247209 
C    -0.5515324   -1.2549646   -0.6242324 
C    -0.4000529   -0.7966891   -1.8968022 
H    -1.1683542   -0.8482175   -3.8830642 
H    -1.6852443   -2.4855502    0.6864824 
H     0.1295050   -0.9368327    0.1605739 
H    -2.9596518   -2.3879333   -3.3324199 
C     0.7172550    0.1666088   -2.2289838 
C     0.4249951    1.6033087   -1.7477110 
H     0.9049162    0.1817795   -3.3243646 
H     1.6485192   -0.2028364   -1.7473542 
C     1.6805467    2.4646346   -1.8220495 
O    -3.4406268   -3.4131439   -0.9362222 
H    -4.0483604   -3.6639558   -1.7083358 
O     1.6963465    3.5873595   -2.6374690 
N    -0.6785953    2.1923837   -2.5228546 
H     0.1307256    1.5899096   -0.6733875 
H    -0.4108858    2.2565917   -3.5335206 
H    -1.5387415    1.6033674   -2.4433726 
N     2.7327055    2.2664333   -0.8599221 
C     4.1451855    2.5340911   -1.2135202 
H     2.4919074    1.8453919    0.0662097 
C     4.4354335    3.9748404   -1.6207353 
O     5.7093908    4.4842813   -1.4074566 
O     3.5114889    4.7651582   -2.2880194 
H     2.6047710    4.1760628   -2.4634220 
C     4.7221567    1.4707100   -2.1822446 
H     4.7341120    2.4305582   -0.2736007 
C     4.1102325    1.4358922   -3.5746550 
H     4.6200432    0.4871395   -1.6828883 
H     5.8158546    1.6447378   -2.2948642 
C     3.6119693    0.3560994   -4.2089285 
C     3.4855144   -0.9317118   -3.7866072 
C     2.9346146   -1.8448471   -4.6364284 
C     2.5341518   -1.4702495   -5.8877102 
C     2.6868977   -0.1808615   -6.2994596 
C     3.2290859    0.7062084   -5.4394078 
H     3.8007618   -1.2465853   -2.7983535 
H     2.8151584   -2.8779061   -4.3173567 
H     2.0993787   -2.2055641   -6.5607429 
H     2.3858511    0.1305489   -7.2943910 
N     3.4946110    2.0767344   -5.6854220 
C     4.0850583    2.4705930   -4.4393418 
H     3.3229711    2.6460363   -6.5466703 
H     4.4915358    3.4632054   -4.2489880 
