48
Energy =
C     5.9243807   -1.0946213    2.1617326 
C     5.0225732   -0.0808477    2.1617598 
C     5.5036220   -2.3833867    2.0522119 
C     4.1817907   -2.6476392    1.9489267 
C     3.2765831   -1.6383023    1.9432347 
C     3.6910394   -0.3459031    2.0515390 
H     5.3747644    0.9437683    2.2466087 
H     3.8576944   -3.6775007    1.8569662 
H     2.2204883   -1.8744185    1.8398932 
H     6.9825909   -0.8700626    2.2445284 
C     2.6880325    0.7893192    2.0205014 
C     2.6855603    1.5150601    0.6546226 
H     2.9414488    1.5094175    2.8290806 
H     1.6636259    0.4152248    2.2468451 
C     2.2463673    0.6067264   -0.4989177 
O     6.4070626   -3.4521039    2.0331152 
H     7.3748819   -3.1696810    2.1477360 
O     1.4020203   -0.4670250   -0.2372332 
N     1.8349519    2.7131895    0.7269371 
H     3.7261965    1.8408462    0.4428025 
H     0.8541603    2.4363222    0.9778554 
H     2.1793084    3.3544851    1.4807694 
N     2.3774768    1.0362844   -1.8651260 
C     3.7885271    1.0817111   -2.3308291 
H     1.8989923    1.9657064   -1.9284848 
C     4.1006807    2.3921622   -3.0634368 
O     4.4329477    2.3871371   -4.4131765 
O     4.0762142    3.6140731   -2.3919957 
H     3.7581135    3.5190254   -1.4391214 
C     4.0485918   -0.1451722   -3.2315434 
H     4.5211495    1.0457882   -1.4930251 
C     4.1482091   -1.4271134   -2.4346058 
H     5.0028569   -0.0139944   -3.7912952 
H     3.2519032   -0.2171264   -4.0037384 
C     3.1768630   -2.3275145   -2.2136760 
C     1.8817350   -2.3329701   -2.6201715 
C     1.0906611   -3.3813217   -2.2513664 
C     1.6008624   -4.3990631   -1.4935150 
C     2.9047940   -4.3725549   -1.0969982 
C     3.6658695   -3.3235089   -1.4725330 
H     1.4685432   -1.5150885   -3.2025199 
H     0.0464615   -3.4008375   -2.5535764 
H     0.9625443   -5.2291740   -1.2015637 
H     3.3260077   -5.1695123   -0.4935140 
N     5.0329375   -3.1012987   -1.1586506 
C     5.2648078   -1.8495207   -1.8150766 
H     5.6963606   -3.6991377   -0.6103372 
H     6.2160497   -1.3225916   -1.8108098 
