48
Energy =
C     1.0772935    7.1434911    1.2537414 
C     1.6981625    6.1020647    1.8690711 
C     0.6280248    7.0151291   -0.0262327 
C     0.8056954    5.8461334   -0.6828720 
C     1.4260668    4.8125115   -0.0645307 
C     1.8635687    4.9218275    1.2126217 
H     2.0629914    6.2231770    2.8856431 
H     0.4483753    5.7502960   -1.7017556 
H     1.6204842    3.7511856   -0.5400681 
H     0.9457245    8.0794516    1.7858782 
C     2.6015608    3.7546431    1.8559589 
C     2.0059538    2.3550465    1.5091080 
H     2.5903455    3.8811769    2.9609238 
H     3.6695798    3.7910159    1.5417633 
C     2.2361547    1.9448483    0.0422062 
O    -0.0160460    8.0658719   -0.6870053 
H    -0.1047488    8.9081502   -0.1291540 
O     1.7963299    2.7648954   -0.9987037 
N     2.5433881    1.3506103    2.4435927 
H     0.8973262    2.3944441    1.6297409 
H     3.5914895    1.3975513    2.4515873 
H     2.2229651    1.5660819    3.4174969 
N     2.7196607    0.6374059   -0.2825589 
C     4.0527923    0.5253443   -0.9012128 
H     2.1067842   -0.1846332   -0.0897513 
C     5.1246648    1.2694344   -0.0969455 
O     5.4510381    2.5855585   -0.4113386 
O     5.7527271    0.6743723    0.9989164 
H     5.3679183   -0.2373167    1.2009485 
C     3.9714740    0.9714528   -2.3773427 
H     4.3458825   -0.5476847   -0.8893783 
C     5.2294747    0.6182914   -3.1390771 
H     3.7874571    2.0684973   -2.4364207 
H     3.0949007    0.4913769   -2.8646255 
C     5.5344916   -0.5730821   -3.6759850 
C     4.8144684   -1.7238089   -3.7058203 
C     5.3614178   -2.8142058   -4.3160298 
C     6.6059904   -2.7394987   -4.8782142 
C     7.3114835   -1.5735628   -4.8332859 
C     6.7477595   -0.5082480   -4.2261263 
H     3.8270524   -1.7845348   -3.2581166 
H     4.8053468   -3.7476311   -4.3551945 
H     7.0355756   -3.6132418   -5.3615553 
H     8.3011478   -1.4983762   -5.2707441 
N     7.3126183    0.7844269   -4.0591079 
C     6.2660472    1.4510788   -3.3393189 
H     8.2394442    1.1494497   -4.3772306 
H     6.3176713    2.4794274   -2.9836198 
