48
Energy =
C    -0.8156654   -5.4423679   -0.7345771 
C    -0.3372380   -4.4800915   -1.5635366 
C    -0.7468164   -5.2792562    0.6137955 
C    -0.1972031   -4.1535058    1.1233735 
C     0.2824071   -3.1879136    0.2992599 
C     0.2105749   -3.3436721   -1.0512544 
H    -0.3932649   -4.6266917   -2.6392652 
H    -0.1435167   -4.0369864    2.2001128 
H     0.7287111   -2.2948010    0.7285073 
H    -1.2511132   -6.3433664   -1.1527309 
C     0.7587522   -2.2794763   -1.9763975 
C     2.1653096   -2.6411231   -2.5044995 
H     0.7909197   -1.2939521   -1.4609315 
H     0.0565251   -2.1564686   -2.8315189 
C     2.5794824   -1.7073075   -3.6266405 
O    -1.2309019   -6.2513790    1.4955974 
H    -1.6226008   -7.0655220    1.0353109 
O     2.7128184   -2.1887660   -4.9248667 
N     3.1526234   -2.6263672   -1.4089401 
H     2.1382282   -3.6593264   -2.9631772 
H     3.0569754   -1.7527187   -0.8376513 
H     2.9748367   -3.4357068   -0.7673236 
N     2.8696062   -0.3298650   -3.3667130 
C     4.2877296    0.0132588   -3.1829527 
H     2.0871273    0.3592798   -3.2994108 
C     4.4439158    1.1492711   -2.1749336 
O     3.6567263    2.2890593   -2.3041178 
O     5.4012735    1.1119154   -1.1594719 
H     5.9417921    0.2586613   -1.1704341 
C     4.8776368    0.3802855   -4.5581070 
H     4.8330638   -0.8717830   -2.7777859 
C     6.3831842    0.5132137   -4.5021446 
H     4.4074375    1.3109347   -4.9443263 
H     4.6125029   -0.4198145   -5.2888295 
C     7.0929152    1.6316249   -4.2776397 
C     6.6732477    2.9080691   -4.0792735 
C     7.6123482    3.8721044   -3.8580230 
C     8.9414036    3.5509013   -3.8385044 
C     9.3395931    2.2625175   -4.0381315 
C     8.3917795    1.3266847   -4.2554081 
H     5.6190566    3.1682206   -4.0835920 
H     7.3008828    4.9003946   -3.6890008 
H     9.6830865    4.3248787   -3.6568756 
H    10.3892853    1.9896089   -4.0192957 
N     8.5914016   -0.0635536   -4.4682213 
C     7.2401150   -0.5172344   -4.6114841 
H     9.4833665   -0.6081257   -4.5097450 
H     6.9549493   -1.5558547   -4.7661011 
