48
Energy =
C    -2.5371387    2.9342009    0.8550337 
C    -1.4871779    3.5441636    0.2475009 
C    -2.4600602    2.5877754    2.1674928 
C    -1.3315024    2.8536165    2.8633603 
C    -0.2785210    3.4616641    2.2606084 
C    -0.3513136    3.8144587    0.9477456 
H    -1.5588832    3.8076832   -0.8060951 
H    -1.2820813    2.5714992    3.9092831 
H     0.6206863    3.6636992    2.8365551 
H    -3.4366667    2.7208326    0.2874713 
C     0.8329617    4.4760001    0.2750037 
C     1.9051976    3.4392318   -0.1493860 
H     1.2715498    5.2126081    0.9836018 
H     0.5069147    5.0665300   -0.6120973 
C     1.4900924    2.6014389   -1.3578199 
O    -3.5226192    1.9574429    2.8228593 
H    -4.3306634    1.7941066    2.2323075 
O     0.3683137    2.9336065   -2.1106980 
N     3.1812805    4.1227749   -0.4095451 
H     2.0584499    2.7165418    0.6841267 
H     3.0659563    4.7967706   -1.2070032 
H     3.4779959    4.6717504    0.4304087 
N     2.1052662    1.3327612   -1.6076669 
C     3.5378290    1.2819738   -1.9752996 
H     1.4939782    0.4871082   -1.5574751 
C     4.0363364    2.4445996   -2.8501289 
O     3.1775600    3.1045415   -3.7199015 
O     5.3745995    2.8400667   -2.8232893 
H     5.9217278    2.2909038   -2.1782441 
C     3.8590831   -0.0878796   -2.6152599 
H     4.1179324    1.3457341   -1.0285415 
C     3.1807590   -0.3807174   -3.9492772 
H     3.5802001   -0.8921138   -1.8996407 
H     4.9604602   -0.1540060   -2.7607974 
C     3.4787873   -1.4217999   -4.7452440 
C     4.4160260   -2.3929318   -4.5868223 
C     4.5204652   -3.3570161   -5.5458996 
C     3.6947301   -3.3394085   -6.6354600 
C     2.7585488   -2.3581287   -6.7716973 
C     2.6762020   -1.4148068   -5.8102032 
H     5.0714726   -2.4116406   -3.7213106 
H     5.2639470   -4.1436730   -5.4435144 
H     3.7838877   -4.1111704   -7.3957370 
H     2.0935947   -2.3310280   -7.6282902 
N     1.7705713   -0.3250716   -5.7554034 
C     2.1557697    0.2922826   -4.5179782 
H     1.0173661   -0.0505177   -6.4271964 
H     1.6718534    1.1804222   -4.1126740 
