48
 energy: -9.282689275938 gnorm: 0.000426580645 xtb: 6.6.0 (2ccbbd7)
C            1.33387250359143        2.61598608636645        4.26992173412439
C            2.04355722753106        2.96219014910371        3.14421588917714
C            0.81489313709473        1.32916673251240        4.41538106346584
C            1.03169764831523        0.41120236635148        3.38863403314277
C            1.74511513979728        0.76531360082387        2.26917020628604
C            2.26537954855282        2.04297921809164        2.12810591370328
H            2.43675545009834        3.95930882330279        3.04449742961235
H            0.61876347404364       -0.57646105021456        3.49093530477967
H            1.87637405148307        0.05771785034875        1.46842825403571
H            1.17108877426579        3.33624539036768        5.05151937775903
C            3.03440408035167        2.42913304053495        0.90105968099080
C            2.17366060101664        2.52813796358307       -0.36952573458065
H            3.84120660276832        1.70692903748173        0.74502467753447
H            3.52875548765083        3.38974558337826        1.07922200577134
C            1.74341959444728        1.16123889121999       -0.85675251763032
O            0.10049473736026        0.94823866979680        5.53515370183756
H            0.02247829323257        1.70333357760856        6.15739082620895
O            0.70370048728469        0.71110522411226       -0.42031172471769
N            0.98019439174800        3.33317053708789       -0.15934051794792
H            2.74875671262304        3.02196140547622       -1.16811423247609
H            0.28075129872765        2.74497041661393        0.28692910313917
H            1.17264891430750        4.12452228636190        0.44347760838899
N            2.51623488157369        0.44095335240743       -1.74286901324311
C            3.87352428926240        0.80178770769839       -2.16986905874586
H            2.22364476554899       -0.50314509065071       -1.98444312142468
C            3.85849897607462        2.13610134647650       -2.87785349836423
O            4.69225710288688        2.96087720247437       -2.57055827884008
O            2.90260443508611        2.29136459028500       -3.82568696483507
H            2.28302366841831        1.52505711159210       -3.81165081020801
C            4.48235027128983       -0.28078318561282       -3.06358485586328
H            4.49225459091796        0.90527949641308       -1.26920037141852
C            5.91791224038958       -0.05615692571863       -3.41002427112794
H            3.89812276468328       -0.34987634299871       -3.98568184078874
H            4.38114090518815       -1.25458842245888       -2.57409239649408
C            6.43765746981988        0.86290446679413       -4.37153557494972
C            5.83904074308882        1.82825877766404       -5.20061547274369
C            6.63355584426181        2.56638770539222       -6.03240808683368
C            8.02415861533321        2.37535245254179       -6.06678821966112
C            8.63173386064692        1.45336884647777       -5.25931330549600
C            7.83505091288294        0.68935620375550       -4.39722108682178
H            4.78301407670009        2.01885840986557       -5.12231164285823
H            6.18861877847481        3.32097942341365       -6.65975525864879
H            8.62195635928676        2.97397842283780       -6.73400293060471
H            9.69688187758409        1.30717043932626       -5.27209262806520
N            8.14972828200128       -0.28963423747022       -3.47211287409055
C            6.99190521059558       -0.72721089870416       -2.87902026372734
H            9.09716724701705       -0.60843749676363       -3.26106088898155
H            6.93838088162645       -1.49288800988682       -2.12206598014846
