48
Energy =
C     2.0271122    5.8335511   -0.2829599 
C     1.7032011    4.6507286    0.2965951 
C     2.8960509    6.6802184    0.3295084 
C     3.4368885    6.3353437    1.5196367 
C     3.1232849    5.1494273    2.0998703 
C     2.2568114    4.2940612    1.4880909 
H     1.0011475    3.9957166   -0.2074326 
H     4.1295628    7.0192858    1.9979393 
H     3.5765821    4.8866298    3.0520803 
H     1.5922674    6.0969078   -1.2406179 
C     1.9306506    2.9579344    2.1291793 
C     2.9261961    1.7866422    1.8415172 
H     0.8937889    2.6540198    1.8595098 
H     1.8835345    3.1126769    3.2306656 
C     2.3618736    0.6971916    0.9282655 
O     3.2465987    7.9103388   -0.2372966 
H     2.8424952    8.0718514   -1.1536689 
O     1.8653537   -0.4471298    1.5425547 
N     4.2759185    2.2270875    1.4456790 
H     3.0392808    1.2438778    2.8125091 
H     4.2408951    2.9537347    0.6948756 
H     4.7400107    2.6856012    2.2643132 
N     2.0218900    0.8980514   -0.4573586 
C     3.1688354    0.8540285   -1.4015186 
H     1.4596418    1.7716530   -0.5440317 
C     3.6691064    2.2612615   -1.7412341 
O     2.7655216    3.2145698   -2.1961818 
O     5.0197594    2.6066389   -1.6813270 
H     5.6014195    1.8591246   -1.3320316 
C     2.6896230    0.1756482   -2.7139178 
H     4.0381953    0.3051160   -0.9861295 
C     2.7329435   -1.3443776   -2.8840349 
H     3.2884846    0.5857857   -3.5613468 
H     1.6447006    0.5070852   -2.9135109 
C     2.9461757   -2.3720712   -2.0209954 
C     3.2284732   -2.3947326   -0.6912189 
C     3.3909373   -3.5953669   -0.0665269 
C     3.2763882   -4.7592704   -0.7670340 
C     2.9976551   -4.7291024   -2.0970540 
C     2.8389084   -3.5285045   -2.6929241 
H     3.3276948   -1.5064876   -0.1062083 
H     3.6075962   -3.6226180    0.9991749 
H     3.4048112   -5.7125157   -0.2602466 
H     2.9007297   -5.6452082   -2.6699685 
N     2.5411831   -3.3078027   -4.0589295 
C     2.4850727   -1.8819226   -4.0961078 
H     2.4020273   -4.0016211   -4.8294348 
H     2.2588509   -1.3099819   -4.9943096 
