48
Energy =
C     4.8278529    2.1367156    4.7097060 
C     4.7396020    1.4908217    3.5188648 
C     4.2653856    3.3652913    4.8638482 
C     3.6174116    3.9391371    3.8243784 
C     3.5260695    3.2974811    2.6324040 
C     4.0903607    2.0693203    2.4713488 
H     5.1884050    0.5072276    3.4073213 
H     3.1711389    4.9190086    3.9578058 
H     2.9975361    3.7753756    1.8095057 
H     5.3475956    1.6689093    5.5390327 
C     3.9745744    1.3475942    1.1473871 
C     2.5793726    0.7074832    0.9466385 
H     4.7659193    0.5723706    1.0430014 
H     4.1581754    2.0876924    0.3305913 
C     2.4377767    0.1573958   -0.4604014 
O     4.3377263    4.0560174    6.0774314 
H     4.8413437    3.5635437    6.8067924 
O     3.2605404   -0.8815319   -0.8881576 
N     2.3362194   -0.3499007    1.9410458 
H     1.7949284    1.4969130    1.0491532 
H     3.1134587   -1.0525356    1.9110773 
H     2.2995516    0.0621343    2.9020365 
N     1.6722549    0.8791278   -1.4307116 
C     2.4206340    1.6292489   -2.4548596 
H     0.6354028    0.7583914   -1.4445506 
C     2.5376153    3.1140259   -2.0647866 
O     2.4007300    3.4794654   -0.7322825 
O     2.9148276    4.1107753   -2.9686444 
H     2.8573212    3.7343516   -4.0091612 
C     1.7414334    1.3637590   -3.8207924 
H     3.4717435    1.2559371   -2.5096606 
C     2.6099283    1.8562106   -4.9498563 
H     0.7581006    1.8845256   -3.8560547 
H     1.5334886    0.2781320   -3.9364923 
C     3.6145740    1.1916624   -5.5342184 
C     3.8943936   -0.1378383   -5.5037935 
C     5.0116630   -0.5834397   -6.1444511 
C     5.8361288    0.2977416   -6.7836569 
C     5.5501117    1.6296450   -6.7790104 
C     4.4308875    2.0486670   -6.1483704 
H     3.2514570   -0.8415715   -4.9841470 
H     5.2518961   -1.6440971   -6.1378267 
H     6.7313276   -0.0625491   -7.2846650 
H     6.2109304    2.3441365   -7.2585022 
N     4.0311686    3.4031234   -5.9694088 
C     2.8001046    3.3244282   -5.1704974 
H     4.5094116    4.2614624   -6.3292281 
H     1.9416866    3.7558003   -5.7279394 
