48
Energy =
C    -2.8037508    3.5449175   -1.3560830 
C    -2.0484233    2.7382760   -0.5687646 
C    -2.2090540    4.3816440   -2.2479017 
C    -0.8600910    4.4068077   -2.3417973 
C    -0.1004638    3.6067073   -1.5522426 
C    -0.6897381    2.7580644   -0.6673199 
H    -2.5396676    2.0759615    0.1386795 
H    -0.3927362    5.0721860   -3.0593288 
H     0.9811652    3.6508241   -1.6441613 
H    -3.8842895    3.5180472   -1.2712345 
C     0.1517041    1.8514153    0.2058360 
C     0.0078861    0.3616607   -0.1833069 
H    -0.1679107    1.9955968    1.2602993 
H     1.2257943    2.1430462    0.1654303 
C     0.6668419    0.0482412   -1.5164570 
O    -2.9607860    5.2262644   -3.0729495 
H    -3.9625583    5.1345383   -2.9503573 
O    -0.1251427   -0.4893888   -2.5256556 
N     0.5500474   -0.4859233    0.8953432 
H    -1.0696639    0.1103265   -0.3284438 
H     1.5239298   -0.1809010    1.1359041 
H    -0.0342432   -0.3739245    1.7571696 
N     2.0833549   -0.1788333   -1.5602088 
C     2.7517767    0.2609541   -2.8113858 
H     2.2116048   -1.2003866   -1.3946492 
C     2.5038167    1.7324040   -3.1413100 
O     3.4388406    2.6766373   -2.7346701 
O     1.3888530    2.1729523   -3.8546946 
H     0.6760669    1.4608814   -3.9318131 
C     2.4956519   -0.6830432   -4.0213429 
H     3.8468016    0.2283346   -2.6127600 
C     3.0532810   -2.0732065   -3.7972995 
H     2.9998113   -0.2558961   -4.9174440 
H     1.4224969   -0.7222902   -4.2914833 
C     2.3726505   -3.1953143   -3.4970028 
C     1.0388257   -3.3996921   -3.3368489 
C     0.6067400   -4.6552968   -3.0213834 
C     1.5020486   -5.6771582   -2.8740108 
C     2.8352641   -5.4512832   -3.0406174 
C     3.2387532   -4.2018698   -3.3516609 
H     0.3199878   -2.5943942   -3.4512006 
H    -0.4562389   -4.8441572   -2.8830977 
H     1.1495878   -6.6747691   -2.6207768 
H     3.5590990   -6.2517460   -2.9253640 
N     4.5730453   -3.7620890   -3.5587844 
C     4.3640564   -2.3730106   -3.8402628 
H     5.4662931   -4.3067774   -3.5160447 
H     5.1617874   -1.6630383   -4.0519996 
