48
 energy: -8.851967679652 gnorm: 0.000757866957 xtb: 6.6.0 (2ccbbd7)
C           -2.04670474889810        2.70822729832447        2.57400230081362
C           -0.74720144357073        2.97862668056255        2.20996806971841
C           -2.67264600710285        1.52791761846095        2.16669451548078
C           -1.94503348296247        0.63567327962927        1.37775230233907
C           -0.65360600002264        0.92271513659671        1.02543056733625
C           -0.02590329307892        2.08133288539381        1.43340482606050
H           -0.27785121400076        3.89440480877189        2.52576539445878
H           -2.41506426869682       -0.27514765970885        1.05408978425545
H            0.06320870880207        0.19486927202160        0.33986142139881
H           -2.59591563564293        3.40762798804229        3.17839410845466
C            1.38595451706956        2.36736897077893        1.01677288166506
C            2.31141448669885        1.13492379978760        1.01848187458950
H            1.80563017861900        3.12986132293031        1.68048365018016
H            1.38847791983062        2.81285849945380        0.01689786886609
C            2.05219128314028        0.23579814401024       -0.16577180778549
O           -3.97421483091508        1.22763506557200        2.52095725026606
H           -4.34768606392261        1.95061867201421        3.07016845578601
O            0.82275732992894       -0.36395202245476       -0.27651760744414
N            3.71062680749207        1.53887700742336        1.14008998943616
H            2.08076167645082        0.53344254228719        1.91265953291221
H            3.90581368000857        2.20819410536291        0.39890563343621
H            3.86849937308297        2.02542624013203        2.01339028231161
N            2.98710908619432       -0.02720751608836       -1.17473207504447
C            3.97104078279768        0.93336903337583       -1.69189961211906
H            2.66079221575535       -0.65173898737735       -1.90571006397515
C            3.36191798569842        2.30382696760346       -1.75409281906006
O            4.10988775708271        3.36394538719197       -1.32255773783134
O            2.07132470045257        2.42027312821623       -2.21729721226057
H            1.66122567276419        1.52632032030409       -2.28400909456213
C            4.54809965188485        0.50668209601167       -3.05501813278878
H            4.79407772514863        0.94014894697116       -0.96376731079587
C            5.97828318237611        0.88817885863025       -3.28857755366094
H            3.92328267282183        0.91355654566698       -3.85603576961129
H            4.47251059829902       -0.58236530314079       -3.14363949360104
C            6.69375904432925        2.03868888776215       -2.82946620774251
C            6.34568056583439        3.14931356790237       -2.04842623223409
C            7.28501727840182        4.09635065618455       -1.76939355086170
C            8.59820427759272        3.97727046137965       -2.25177860463300
C            8.97028447060407        2.90881846284836       -3.02038466874884
C            8.01324346802361        1.92906944170849       -3.31624993500045
H            5.19083867517510        3.26889540730839       -1.65581963778998
H            7.01196957711248        4.95135780441990       -1.17369103027300
H            9.31987455593026        4.74125202537089       -2.01438576601239
H            9.97179617783739        2.80720017281803       -3.39814370420556
N            8.09009161568168        0.76309072108109       -4.05428197832834
C            6.86342533190391        0.14850282311426       -4.03476423478355
H            8.93188481580012        0.42622480652655       -4.52512101750944
H            6.63670657006894       -0.78214411015098       -4.52924134607087
