48
Energy =
C    -0.9048139    4.9080878   -2.4716292 
C    -0.1976472    4.1903166   -3.3793291 
C    -0.3744751    5.1764375   -1.2504741 
C     0.8617994    4.7210298   -0.9467947 
C     1.5810253    3.9993942   -1.8525868 
C     1.0452588    3.7225620   -3.0751356 
H    -0.6298686    4.0102782   -4.3594235 
H     1.2620521    4.9366807    0.0405924 
H     2.6479288    3.5517505   -1.4827088 
H    -1.8929760    5.2735689   -2.7288230 
C     1.8536623    3.0006218   -4.1240166 
C     1.5496927    1.4867041   -4.3393716 
H     2.9292802    3.1753814   -3.9816530 
H     1.6989567    3.5306153   -5.0893114 
C     1.4820959    0.5189866   -3.1362171 
O    -1.0760746    5.9112989   -0.2888781 
H    -1.9937147    6.2167402   -0.5935154 
O     0.8026725   -0.6792970   -3.3208157 
N     0.3409261    1.3462345   -5.1710818 
H     2.3974605    1.0848017   -4.9381695 
H    -0.5084641    1.6156548   -4.6215898 
H     0.3934061    1.9358041   -6.0338357 
N     2.0630118    0.7236857   -1.8320913 
C     3.5406379    0.8396991   -1.7008395 
H     1.5146437    1.4341900   -1.3043776 
C     4.0292790    2.2712636   -1.8773506 
O     4.9048034    2.6030323   -2.9006058 
O     3.5924413    3.1622158   -1.1682708 
H     3.4939454    2.9633179   -0.2254129 
C     4.3077809   -0.1885689   -2.5745382 
H     3.7896971    0.6121356   -0.6404994 
C     4.1223225   -1.6059332   -2.0764740 
H     5.3961379    0.0456464   -2.5611493 
H     4.0087355   -0.1132934   -3.6399053 
C     4.7136155   -2.1635220   -1.0073624 
C     5.6057369   -1.6338671   -0.1309745 
C     6.0634491   -2.4218162    0.8841074 
C     5.6294380   -3.7132409    1.0055821 
C     4.7359051   -4.2245652    0.1115284 
C     4.2979788   -3.4248872   -0.8835045 
H     5.9539263   -0.6097094   -0.2273018 
H     6.7773023   -2.0205652    1.5997458 
H     5.9983199   -4.3354303    1.8175471 
H     4.3814266   -5.2467983    0.1917265 
N     3.3785729   -3.7598031   -1.9121251 
C     3.3201947   -2.5256092   -2.6407571 
H     2.8840486   -4.6615826   -2.1017010 
H     2.7072889   -2.3638847   -3.5245247 
