48
Energy =
C     0.0602272   -0.3058396    2.4087831 
C    -0.2924074    0.5511855    1.4173890 
C     1.0460646    0.0291964    3.2835055 
C     1.6697887    1.2228286    3.1621444 
C     1.3206928    2.0836870    2.1731662 
C     0.3380538    1.7512429    1.2908876 
H    -1.0794746    0.2681741    0.7232329 
H     2.4538605    1.4790262    3.8662178 
H     1.8391797    3.0353846    2.0867814 
H    -0.4469390   -1.2604605    2.4984066 
C    -0.0369361    2.7011312    0.1719426 
C     0.7996829    2.5100647   -1.1164559 
H     0.0842392    3.7507368    0.5226606 
H    -1.1162809    2.5929984   -0.0712868 
C     2.2886185    2.7029604   -0.8767169 
O     1.4390454   -0.8341197    4.3111587 
H     0.9120522   -1.6999472    4.3444311 
O     2.7976755    3.8223406   -1.0290617 
N     0.4948094    1.2227198   -1.7669018 
H     0.5237739    3.3287650   -1.8243270 
H     0.7634395    0.4282671   -1.1428015 
H    -0.5338929    1.1514411   -1.9448293 
N     3.1552653    1.6000315   -0.5656312 
C     4.4567584    1.6627264   -1.2506006 
H     2.8597199    0.8362341    0.0809857 
C     4.7341302    3.1041539   -1.7021114 
O     5.8593984    3.4069855   -2.4623077 
O     3.9432156    4.0101305   -1.3925526 
H     3.5936345    4.0493209   -0.4587595 
C     4.4164889    0.6695438   -2.4306805 
H     5.2613945    1.3892240   -0.5339394 
C     5.8009483    0.3151830   -2.9276827 
H     3.8000589    1.0966820   -3.2549474 
H     3.8955164   -0.2623393   -2.1206568 
C     6.6206841   -0.6151698   -2.4141853 
C     6.4304653   -1.4600620   -1.3681415 
C     7.4383131   -2.3170850   -1.0362721 
C     8.6083639   -2.3148147   -1.7444056 
C     8.7780788   -1.4544585   -2.7884254 
C     7.7654417   -0.6182107   -3.0989266 
H     5.5045775   -1.4586948   -0.8005810 
H     7.3119160   -3.0035520   -0.2024733 
H     9.4080511   -2.9989691   -1.4718828 
H     9.7019226   -1.4355517   -3.3565953 
N     7.7430985    0.3576408   -4.1306045 
C     6.4370194    0.9238259   -3.9443014 
H     8.4757413    0.5921375   -4.8390903 
H     6.0400587    1.7692257   -4.5065584 
