48
Energy =
C    -2.3480250   -0.9667008    0.9450818 
C    -1.0360566   -0.7379805    0.6838978 
C    -3.1277430   -1.5977177    0.0267658 
C    -2.5879123   -1.9953716   -1.1477878 
C    -1.2766340   -1.7689362   -1.4143287 
C    -0.4911121   -1.1413158   -0.4965905 
H    -0.4245787   -0.2292389    1.4250633 
H    -3.2204766   -2.4960403   -1.8722930 
H    -0.8634551   -2.0910264   -2.3661524 
H    -2.7716489   -0.6420104    1.8892409 
C     0.9661585   -0.8662437   -0.7940960 
C     1.2031040    0.5991186   -1.2289579 
H     1.3428523   -1.5626791   -1.5744907 
H     1.5628146   -1.0799782    0.1213341 
C     2.6863161    0.9235663   -1.2774508 
O    -4.4836712   -1.8473950    0.2632252 
H    -4.8095677   -1.5211392    1.1664058 
O     3.1536863    1.7632442   -0.4925019 
N     0.5606882    0.8750395   -2.5221185 
H     0.7699159    1.2823943   -0.4596354 
H     0.8491739    0.1558962   -3.2243848 
H    -0.4782363    0.8184960   -2.4175244 
N     3.5658071    0.2928077   -2.2323496 
C     4.7396885    1.1024099   -2.6131231 
H     3.3667940   -0.6540758   -2.6235086 
C     4.8362071    2.3468897   -1.7310832 
O     5.7138083    3.3787780   -2.0529877 
O     4.1546703    2.4211202   -0.6993253 
H     4.0750964    1.6041415   -0.1299777 
C     4.7163525    1.4207221   -4.1317606 
H     5.6602534    0.5209748   -2.3911850 
C     3.3278256    1.6548038   -4.6957958 
H     5.1745442    0.5616031   -4.6689319 
H     5.3635774    2.2957196   -4.3632525 
C     2.5732020    2.7619713   -4.5923424 
C     2.8389048    3.9509553   -3.9934804 
C     1.8840009    4.9242841   -4.0276910 
C     0.6926262    4.7012956   -4.6598581 
C     0.4503816    3.5043109   -5.2646028 
C     1.4097340    2.5564541   -5.2150886 
H     3.7840453    4.1387639   -3.4984769 
H     2.0720715    5.8813735   -3.5464588 
H    -0.0642892    5.4813271   -4.6802162 
H    -0.4883469    3.3113324   -5.7722610 
N     1.3565609    1.2556269   -5.7838611 
C     2.6349870    0.7378818   -5.3963946 
H     0.5902022    0.8027269   -6.3322951 
H     2.9867276   -0.2630184   -5.6323130 
