48
 energy: -9.072480554026 gnorm: 0.000335142066 xtb: 6.6.0 (2ccbbd7)
C           -1.56122360633700       -0.20348168204045       -5.76808030725566
C           -1.41773062676479       -0.17585333980001       -4.40094779395536
C           -1.08167242538875        0.84484789086777       -6.55430293106752
C           -0.45278181817072        1.91383971357261       -5.91673944403580
C           -0.31612754087413        1.93528607653942       -4.54942561046639
C           -0.79915077647697        0.89320858615981       -3.76998001614898
H           -1.78056946327160       -0.99530748195443       -3.80443661514985
H           -0.06770296468541        2.71459265300579       -6.52269142192526
H            0.18979880690387        2.75780831502424       -4.07306035940593
H           -2.04172703090651       -1.03816488326518       -6.24620394902242
C           -0.60675525470689        0.89124150799985       -2.28412314209328
C            0.55490417662364        0.00575265226744       -1.81780042272320
H           -1.53386816306384        0.57105945020120       -1.79818967895527
H           -0.42930012250112        1.91407568047140       -1.93884894674005
C            1.86343376820350        0.46960654749945       -2.41906370081011
O           -1.21459235194812        0.84907167879961       -7.92980321913670
H           -1.65221602873702        0.02224465979305       -8.22728579972534
O            2.09676365649035        0.21321277000612       -3.58367125958810
N            0.62458986634220       -0.06660448432884       -0.36031139993121
H            0.39499230733930       -1.01695819063664       -2.19378437801055
H            0.65301680712653        0.86733528965925        0.02712542223138
H           -0.20918193278006       -0.50373674721096        0.01202658785954
N            2.72168475953514        1.20150682258528       -1.63386641222834
C            4.01140734317260        1.72673133848946       -2.10701066452348
H            2.48607109604092        1.39875453168038       -0.65595392136477
C            3.79481342777170        2.98020856378276       -2.90481700903403
O            4.60412481684170        4.05430049618840       -2.67389649272401
O            2.80097179007313        2.94845268820829       -3.85097034752247
H            2.46755670439188        2.01734416505542       -3.87872639103533
C            4.79436456940965        0.67176106134829       -2.90296106895911
H            4.60276376624108        1.99217886541769       -1.21803905700784
C            6.28647661132967        0.78929559342182       -2.84930475621035
H            4.45715404571821        0.68392494716757       -3.94430255047441
H            4.51093140329300       -0.31592139861913       -2.52264159867997
C            7.10473964795213        1.94792097369683       -2.65548348935245
C            6.83496231774723        3.31237510271778       -2.47344784125140
C            7.86741808761696        4.18528923736432       -2.30268639864782
C            9.19933482845768        3.74175124719460       -2.30620649025629
C            9.49882324417580        2.42029256405259       -2.49052940688423
C            8.44684289216965        1.51258554055227       -2.66938579360698
H            5.67851098522997        3.71885577183453       -2.54558107996505
H            7.65592080604347        5.23354855217890       -2.17236724571913
H            9.99474660398816        4.45518511361565       -2.16810218863339
H           10.51458511404112        2.06795574318329       -2.50192409181077
N            8.44193671126597        0.14725242730415       -2.88177625294664
C            7.14192367494173       -0.27555103165259       -2.99354444793168
H            9.27843681915839       -0.43554295250563       -2.94768121290179
H            6.84182417539818       -1.29729703386834       -3.16167024863070
