48
Energy =
C     2.1537182    0.8469256    2.8639806 
C     1.5421792    1.4076133    1.7904748 
C     1.7523973   -0.3691614    3.3209104 
C     0.7382323   -1.0143241    2.7016873 
C     0.1243649   -0.4593638    1.6271358 
C     0.5259876    0.7552567    1.1598284 
H     1.8749870    2.3819244    1.4380876 
H     0.4240141   -1.9819404    3.0764767 
H    -0.6871764   -0.9963607    1.1436488 
H     2.9649052    1.3743851    3.3550803 
C    -0.1391306    1.3721133   -0.0552964 
C     0.5839531    1.0514357   -1.3875766 
H    -0.1804942    2.4776548    0.0762022 
H    -1.1984580    1.0399484   -0.1196035 
C     2.0491944    1.4760979   -1.3763472 
O     2.3645021   -0.9775166    4.4211468 
H     3.1098741   -0.4264586    4.8333437 
O     2.3312476    2.8347786   -1.2805698 
N     0.3874799   -0.3606734   -1.7704866 
H     0.1297786    1.6910307   -2.1812861 
H     0.6737246   -1.0004856   -0.9946435 
H    -0.6316686   -0.5342813   -1.9402207 
N     3.1038565    0.5173426   -1.1629125 
C     4.4506546    0.7654482   -1.7256686 
H     2.8829852   -0.3698520   -0.6603079 
C     5.1157993    2.0482750   -1.2031164 
O     6.0585509    2.7094100   -1.9819412 
O     4.9701110    2.4571249    0.1252042 
H     4.2891870    1.8971081    0.6142503 
C     4.4902348    0.5565002   -3.2717635 
H     5.1201519   -0.0207977   -1.3117164 
C     3.3526168    1.1876421   -4.0538329 
H     4.4645638   -0.5389771   -3.4662421 
H     5.4638553    0.8980248   -3.6856955 
C     3.2942268    2.4241954   -4.5800977 
C     4.2234860    3.4133171   -4.6016944 
C     3.9083073    4.5907113   -5.2137096 
C     2.6847341    4.7590287   -5.7988724 
C     1.7709481    3.7485998   -5.7800032 
C     2.1051743    2.5949516   -5.1645969 
H     5.2023578    3.2811524   -4.1614698 
H     4.6363135    5.3982577   -5.2373297 
H     2.4415170    5.7004246   -6.2850644 
H     0.7987780    3.8621839   -6.2473427 
N     1.3092762    1.4246938   -5.0555723 
C     2.1939586    0.5608081   -4.3316651 
H     0.3409963    1.2415135   -5.4050979 
H     1.9431763   -0.4499664   -4.0162698 
