48
 energy: -9.067178663621 gnorm: 0.000817147682 xtb: 6.6.0 (2ccbbd7)
C           -1.54738932742569        1.13502012223999        2.86032446488894
C           -0.22120470840185        1.48353303634452        2.75662336937839
C           -2.39545236518960        1.23129838123289        1.75637621655473
C           -1.86165252871189        1.68424723503078        0.55019614250999
C           -0.53505638718705        2.02881734761296        0.45520687389589
C            0.30306585613626        1.94001914718036        1.55671984975398
H            0.42766022492259        1.39596646691540        3.61107540077833
H           -2.51193416742500        1.74734733289185       -0.30377709574193
H           -0.12588724017041        2.36092737005361       -0.48294783585137
H           -1.94351553892289        0.78004201080248        3.79491086321019
C            1.75523194781567        2.28415797543144        1.43507970609210
C            2.67263657931439        1.05707926365052        1.35528104122668
H            2.05272154039056        2.91542950886178        2.27837104056420
H            1.90646818166203        2.89961732851198        0.54333459809195
C            2.25069397705646        0.10812498906056        0.24031713983089
O           -3.73385009144222        0.89438037021569        1.82896268297248
H           -3.94849905321717        0.56086838869661        2.72679952668664
O            1.41766145633479       -0.73003881294123        0.53223672468573
N            4.08021891756643        1.44493564299678        1.31007913848358
H            2.53773924819862        0.46970149079347        2.27884158889630
H            4.18423773285994        2.16136401311402        0.59506139551351
H            4.35675131000352        1.88005013318399        2.18081496368375
N            2.73027180858485        0.16771877582421       -1.05291132172247
C            3.75912292786623        1.08373137112721       -1.55930833756605
H            2.39635703095948       -0.52260316744778       -1.72274128496423
C            3.26567707125099        2.49300395231217       -1.43592230736211
O            4.13212921705495        3.45573074780270       -1.00099229784362
O            1.94747688228848        2.73023630444939       -1.75062771025472
H            1.52681248762598        1.88506138552760       -2.03672783498377
C            4.17041011568180        0.75568935594385       -3.00769148919992
H            4.64038669311162        0.94216228501043       -0.91929050646250
C            5.60496289683344        1.03325584556200       -3.33691824639567
H            3.52223575012589        1.30040006978854       -3.70112785430850
H            3.98083462832331       -0.30626514479871       -3.19685786841485
C            6.45284484976290        2.07943929726022       -2.85569299783692
C            6.26739682312739        3.14322327464358       -1.96226053272307
C            7.30509311186474        3.98545571829406       -1.69653703308247
C            8.55810365001079        3.80400662181605       -2.30352502114636
C            8.77220993500582        2.77787251490392       -3.18207572871150
C            7.71321457986052        1.90535507128311       -3.46497486181171
H            5.16668500306065        3.31422561200493       -1.45081577107009
H            7.15833427656294        4.80481221237570       -1.01277035352516
H            9.36010859859760        4.48573094269767       -2.07372504782218
H            9.72646516644265        2.62944340357214       -3.65474707931855
N            7.62720116386928        0.80281845063684       -4.29377382661315
C            6.35762554658783        0.28887620761743       -4.21235288381993
H            8.39551504153724        0.43836955874459       -4.86009323662379
H            6.01092685421491       -0.57751866504412       -4.75207863441054
