48
Energy =
C    -3.6051942    1.8220166   -3.8122544 
C    -2.3488095    1.7794753   -4.3315894 
C    -3.8264603    1.4458676   -2.5208793 
C    -2.7882166    1.0287463   -1.7598286 
C    -1.5412596    0.9883101   -2.2881478 
C    -1.3058035    1.3706274   -3.5581916 
H    -2.1890473    2.0707473   -5.3661667 
H    -2.9651814    0.7323547   -0.7321121 
H    -0.5616010    0.6736371   -1.7338354 
H    -4.4313178    2.1527389   -4.4323446 
C     0.1068264    1.2487874   -4.1066793 
C     1.2357460    1.7823703   -3.1440715 
H     0.1416100    1.8041545   -5.0692098 
H     0.3047713    0.1810121   -4.3475022 
C     1.4554465    0.8874028   -1.8827055 
O    -5.1053742    1.4787424   -1.9559278 
H    -5.8261595    1.8038816   -2.5906125 
O     0.3473268    0.3731065   -1.2028541 
N     2.4723309    1.9904671   -3.9304153 
H     0.9033598    2.7695107   -2.7411158 
H     2.9417940    1.0658074   -4.0430031 
H     2.2456141    2.2067723   -4.9310528 
N     2.6849141    0.7473586   -1.1412730 
C     3.9505017    1.4282361   -1.5024952 
H     2.8128724   -0.2701486   -0.9398018 
C     3.8015491    2.7951266   -2.1922715 
O     3.2530826    2.9476139   -3.4854992 
O     4.2823046    3.9594092   -1.5827121 
H     4.7140463    3.7986480   -0.6865245 
C     4.9573291    0.4581172   -2.1821201 
H     4.4177671    1.6594508   -0.5221762 
C     6.3384424    1.0711714   -2.2846473 
H     4.6209312    0.1163547   -3.1770359 
H     5.0409427   -0.4674493   -1.5703026 
C     6.8481131    1.7619218   -3.3180982 
C     6.2998932    2.0630030   -4.5232175 
C     7.0366726    2.7958003   -5.4061834 
C     8.2969333    3.2114977   -5.0769378 
C     8.8275504    2.8981729   -3.8610584 
C     8.0785916    2.1724031   -3.0043609 
H     5.2973169    1.7434262   -4.7867379 
H     6.6153570    3.0565079   -6.3738752 
H     8.8754608    3.7990907   -5.7851460 
H     9.8235124    3.2247232   -3.5821987 
N     8.4373604    1.7523592   -1.6954246 
C     7.2529711    1.0510062   -1.2984198 
H     9.3263087    1.9126736   -1.1684769 
H     7.1160973    0.5810378   -0.3276339 
