48
Energy =
C     0.2634667   -3.3362154   -0.3537680 
C     0.9011266   -2.1772485   -0.6570744 
C     0.9296449   -4.5185586   -0.4052962 
C     2.2317537   -4.5346462   -0.7627755 
C     2.8761436   -3.3806076   -1.0665765 
C     2.2231630   -2.1844918   -1.0048014 
H     0.3306288   -1.2588956   -0.6064810 
H     2.7517637   -5.4852515   -0.8060186 
H     3.9215984   -3.4266198   -1.3602704 
H    -0.7837636   -3.3142879   -0.0720997 
C     2.9872116   -0.9238057   -1.3938939 
C     2.4646297    0.4132230   -0.7905917 
H     3.0214033   -0.8559343   -2.5032277 
H     4.0407240   -1.0669830   -1.0682122 
C     3.6064837    1.3556526   -0.4434732 
O     0.3000903   -5.7298265   -0.1002045 
H    -0.6744040   -5.6333420    0.1636406 
O     3.8510867    1.6927862    0.8826952 
N     1.5277214    1.0661154   -1.7235305 
H     1.9520892    0.2249478    0.1818783 
H     2.0373237    1.3597730   -2.5917726 
H     0.7851753    0.3981195   -2.0313778 
N     4.4807460    1.8478218   -1.4694771 
C     5.8689535    1.3501736   -1.2980520 
H     4.4403332    2.8930698   -1.4029121 
C     6.7859573    2.3869710   -0.6337591 
O     7.3559804    3.3960394   -1.4029289 
O     7.0420186    2.3705096    0.7354214 
H     6.4511972    1.7109608    1.2213348 
C     6.3836853    0.9373058   -2.6913010 
H     5.9022420    0.4377393   -0.6556177 
C     7.7073732    0.2070790   -2.6097319 
H     6.4856136    1.8392573   -3.3381723 
H     5.6317906    0.2874161   -3.1889761 
C     7.8887415   -1.1112738   -2.4321905 
C     6.9748725   -2.1102351   -2.3263468 
C     7.4248356   -3.3835219   -2.1357834 
C     8.7663672   -3.6366455   -2.0531622 
C     9.6657407   -2.6175369   -2.1617027 
C     9.1954930   -1.3670517   -2.3525260 
H     5.9111066   -1.9126067   -2.3948109 
H     6.7135196   -4.2013881   -2.0493914 
H     9.1178763   -4.6540246   -1.8993169 
H    10.7330351   -2.7996692   -2.0949687 
N     9.9554366   -0.1736758   -2.4766951 
C     8.9141759    0.8006255   -2.6337067 
H    10.9927876   -0.0407871   -2.4628493 
H     9.0797228    1.8743814   -2.7220386 
