48
Energy =
C     0.7894217    3.0221567    3.8825141 
C     1.7473416    3.4621686    3.0277935 
C     0.4247251    1.7124574    3.8847839 
C     1.0231087    0.8515135    3.0312859 
C     1.9812580    1.2862043    2.1742184 
C     2.3468638    2.5976408    2.1624067 
H     2.0284017    4.5117094    3.0420530 
H     0.7257870   -0.1912758    3.0455299 
H     2.4562515    0.5739866    1.5078967 
H     0.3169229    3.7202530    4.5650717 
C     3.4119855    3.0894925    1.2025471 
C     2.8417752    3.6293447   -0.1380699 
H     4.1381644    2.2726267    0.9988018 
H     4.0096918    3.8895205    1.6932882 
C     2.1093763    2.5648097   -0.9607465 
O    -0.5562487    1.2252060    4.7546346 
H    -0.9644392    1.9348500    5.3531561 
O     0.7860457    2.7609079   -1.3429922 
N     2.0085341    4.8248128    0.0977931 
H     3.6925846    3.9406982   -0.7866690 
H     1.1023807    4.5561606    0.5519901 
H     2.5012457    5.5084145    0.7180984 
N     2.6790491    1.2661255   -1.2046196 
C     4.0074601    1.1000631   -1.8381635 
H     2.1210035    0.4454257   -0.8799940 
C     4.5002994    2.2788655   -2.6852643 
O     3.6021665    3.1224561   -3.3210779 
O     5.8608588    2.5429900   -2.8241094 
H     6.4367345    1.8404657   -2.3857636 
C     4.0356555   -0.2196673   -2.6405111 
H     4.7449023    0.9869977   -1.0144556 
C     3.0739747   -0.3173400   -3.8194043 
H     3.8194752   -1.0622326   -1.9480245 
H     5.0694269   -0.3751091   -3.0227079 
C     3.0513711   -1.3310978   -4.7014078 
C     3.8404373   -2.4351500   -4.7718416 
C     3.6128331   -3.3330178   -5.7730506 
C     2.6102925   -3.1188499   -6.6778412 
C     1.8287647   -2.0057888   -6.5859897 
C     2.0748308   -1.1322295   -5.5873297 
H     4.6364849   -2.6087098   -4.0538531 
H     4.2319313   -4.2234058   -5.8524529 
H     2.4350167   -3.8386715   -7.4734801 
H     1.0280081   -1.8209787   -7.2941057 
N     1.3782444    0.0713688   -5.3116213 
C     2.0816221    0.5378858   -4.1500959 
H     0.5651907    0.5016884   -5.8097842 
H     1.8315442    1.4582826   -3.6256731 
