48
Energy =
C     0.1552348    0.0215944    1.9431355 
C    -0.2467655   -0.3743031    0.7089765 
C     0.6554936   -0.8844372    2.8226514 
C     0.7399846   -2.1842712    2.4654160 
C     0.3475515   -2.5849762    1.2298407 
C    -0.1247711   -1.6776173    0.3286781 
H    -0.6758632    0.3650244    0.0428349 
H     1.1278837   -2.8982093    3.1835377 
H     0.4196465   -3.6363991    0.9663079 
H     0.0736933    1.0661490    2.2249264 
C    -0.5570609   -2.1346003   -1.0556998 
C     0.5777394   -2.3539143   -2.1064759 
H    -1.3206913   -1.4360007   -1.4666080 
H    -1.1014849   -3.0978666   -0.9337813 
C     0.9798086   -1.1297704   -2.9375304 
O     1.0817572   -0.5097904    4.1001091 
H     1.0309987    0.4891165    4.2708904 
O     0.8669696   -1.2220445   -4.3186533 
N     1.7370853   -3.0777938   -1.5463200 
H     0.1370940   -3.0099394   -2.9034023 
H     2.1305658   -2.6080466   -0.7007059 
H     1.4405028   -4.0374468   -1.2475636 
N     1.2631454    0.1680897   -2.3887294 
C     2.4668394    0.2187362   -1.5304230 
H     0.4167698    0.4821267   -1.8741712 
C     2.6704376    1.6208997   -0.9741691 
O     2.3842881    1.8927458    0.3590581 
O     3.1130779    2.6486548   -1.8055743 
H     3.2061341    2.2371256   -2.8834444 
C     3.7287230   -0.2494505   -2.3037974 
H     2.3293769   -0.4264280   -0.6398636 
C     4.0827587    0.5801023   -3.5373468 
H     3.5900809   -1.3077428   -2.6218559 
H     4.5984062   -0.2349853   -1.6106823 
C     5.0929911    0.2725812   -4.3566941 
C     6.0201393   -0.7173435   -4.2377507 
C     6.9600331   -0.8509788   -5.2149949 
C     6.9576536   -0.0086306   -6.2889794 
C     6.0139792    0.9685793   -6.3880756 
C     5.0958075    1.0841109   -5.4023391 
H     6.0252639   -1.3931334   -3.3874692 
H     7.7117667   -1.6332818   -5.1408455 
H     7.7062396   -0.1215196   -7.0690775 
H     5.9925343    1.6385934   -7.2407662 
N     4.0302319    2.0205879   -5.3623427 
C     3.3145006    1.7953146   -4.0871725 
H     3.8504278    2.7571011   -6.0867484 
H     3.3325049    2.8847630   -3.8709441 
