48
Energy =
C     5.7748700    6.8140749    1.6841338 
C     5.3431230    5.9236347    0.7560065 
C     4.9304617    7.7665356    2.1627671 
C     3.6575011    7.8204339    1.7088912 
C     3.2196795    6.9325237    0.7805694 
C     4.0630574    5.9810533    0.2949394 
H     6.0304253    5.1648019    0.3888029 
H     2.9935324    8.5835519    2.1005444 
H     2.1908330    6.9900707    0.4321374 
H     6.7968501    6.7608822    2.0437733 
C     3.5704765    4.9800846   -0.7237971 
C     2.7966166    3.8115593   -0.0598910 
H     4.4198915    4.5946749   -1.3356005 
H     2.9202221    5.4942651   -1.4698330 
C     1.9451876    3.0675246   -1.0871121 
O     5.3433078    8.6983800    3.1204513 
H     6.3109422    8.5945857    3.4062146 
O     0.8457247    3.7425884   -1.6139232 
N     3.7168554    2.9280837    0.6812834 
H     2.0452458    4.2252852    0.6541677 
H     4.5717097    2.7123060    0.1166677 
H     4.0404713    3.4137336    1.5511111 
N     2.0448305    1.6451524   -1.2981361 
C     3.2517081    1.1926774   -2.0534240 
H     1.1683514    1.3816188   -1.7963822 
C     4.1639419    2.2957923   -2.6065243 
O     3.6383028    3.3524634   -3.3350530 
O     5.5352486    2.3103830   -2.3556662 
H     5.8612065    1.4587248   -1.9221964 
C     2.8931897    0.1446028   -3.1396396 
H     3.8689732    0.6449889   -1.3100750 
C     2.1527357    0.7237005   -4.3329485 
H     2.2784852   -0.6592082   -2.6777463 
H     3.8234700   -0.3514151   -3.4924481 
C     2.6929217    1.2520562   -5.4457353 
C     3.9963049    1.4202953   -5.7905299 
C     4.2812207    1.9810461   -7.0007634 
C     3.2718798    2.3558604   -7.8431846 
C     1.9710598    2.1742366   -7.4792382 
C     1.7144611    1.6214710   -6.2749297 
H     4.8010946    1.1390839   -5.1184997 
H     5.3167814    2.1399265   -7.2911012 
H     3.5073731    2.8065207   -8.8038670 
H     1.1584215    2.4677287   -8.1348191 
N     0.4392389    1.3367054   -5.7185515 
C     0.8131293    0.7562670   -4.4627177 
H    -0.5116041    1.4910036   -6.1251898 
H     0.1038587    0.3813261   -3.7296338 
