48
Energy =
C     3.5427560   -0.7956375   -5.8950966 
C     2.4521803   -0.7778459   -5.0853089 
C     4.5073706   -1.7373799   -5.7205943 
C     4.3723684   -2.6591646   -4.7408744 
C     3.2859625   -2.6452556   -3.9274849 
C     2.3180369   -1.7036517   -4.0960682 
H     1.6975881   -0.0029072   -5.2149405 
H     5.1506554   -3.4031575   -4.6128422 
H     3.2014066   -3.3865559   -3.1371011 
H     3.6482645   -0.0490731   -6.6746472 
C     1.1372972   -1.6508921   -3.1515025 
C     1.4980965   -0.9368811   -1.8277790 
H     0.7994597   -2.6886557   -2.9374203 
H     0.2723739   -1.1369007   -3.6292744 
C     1.8649994    0.5263382   -2.0299039 
O     5.6473557   -1.7772572   -6.5286812 
H     5.6862336   -1.0413630   -7.2251503 
O     1.2221212    1.2929100   -2.9996951 
N     0.3882793   -1.0652818   -0.8714404 
H     2.4000642   -1.4256216   -1.3918665 
H    -0.4778816   -0.6331056   -1.2762176 
H     0.1834929   -2.0771169   -0.6961237 
N     2.7671877    1.1682053   -1.1177806 
C     4.0928057    1.6514284   -1.5730362 
H     2.4668100    1.2456284   -0.1196806 
C     4.1775906    3.1705544   -1.4802601 
O     5.1929712    3.7492803   -0.7291851 
O     3.3076382    4.0030884   -2.1833056 
H     2.5550729    3.4725056   -2.6025580 
C     4.4629288    1.1375875   -2.9886843 
H     4.8571074    1.2618399   -0.8627664 
C     5.8895500    1.4695651   -3.3675319 
H     3.7756707    1.5759749   -3.7471846 
H     4.3242283    0.0392743   -3.0286606 
C     6.9618364    0.6678555   -3.2605555 
C     7.0557907   -0.6105672   -2.8102379 
C     8.2815937   -1.2083897   -2.8075904 
C     9.3833735   -0.5275832   -3.2461189 
C     9.2660824    0.7560475   -3.6898140 
C     8.0424963    1.3251794   -3.6852801 
H     6.1856919   -1.1548869   -2.4585335 
H     8.3831112   -2.2318799   -2.4555065 
H    10.3568492   -1.0113153   -3.2408346 
H    10.1300034    1.3111848   -4.0387390 
N     7.7078840    2.6426730   -4.0979687 
C     6.2940582    2.6558827   -3.8559741 
H     8.3254646    3.3938478   -4.4828453 
H     5.6456171    3.5180839   -4.0163627 
