48
 energy: -9.291365069532 gnorm: 0.000768626185 xtb: 6.6.0 (2ccbbd7)
C           -0.67188439855476       -1.20705088009899       -1.28898669692199
C            0.03820044061123       -0.76954615162056       -0.19660469148530
C           -0.49876693662380       -2.50523921000012       -1.77044110635596
C            0.36762401829082       -3.35611785295013       -1.08376163571686
C            1.07613007945773       -2.90927535096436        0.00504663236590
C            0.92936958253717       -1.60683119513449        0.45900445188195
H           -0.05492920194500        0.25039765347153        0.13674897958178
H            0.49282103738822       -4.35963569783190       -1.44863630150414
H            1.77297740052383       -3.56343328937977        0.50003745742436
H           -1.33398127174880       -0.53830019511648       -1.80887629815838
C            1.79445958895637       -1.07856134855535        1.56125131677354
C            2.96058764504758       -0.24446142466628        1.02292404364764
H            2.17186142147568       -1.90680461533988        2.16858849144846
H            1.19623633770876       -0.45555497492683        2.23282900372799
C            2.43738253622444        1.01840091820769        0.38028996080291
O           -1.10051090828336       -2.94327125018275       -2.93871489553289
H           -1.73997838327674       -2.27070243838211       -3.25945885699063
O            1.79870847080669        1.79280195210998        1.06426498053063
N            3.91694584396999        0.11583304660559        2.05628038590786
H            3.48714621359199       -0.83662354565916        0.25999074336181
H            3.49788740906253        0.81319111451788        2.65693558503142
H            4.16051907631050       -0.68451049507760        2.62640722581209
N            2.70432100337068        1.29480688158416       -0.95983478325302
C            4.07589779798922        1.25668811749422       -1.47537399654628
H            2.23234604554528        2.10578001789661       -1.35228185498286
C            4.76800858953186        2.57502360582201       -1.18327178217332
O            5.74213908361391        2.85481523478315       -1.84796863495806
O            4.25612581155840        3.34313907547804       -0.18615860656183
H            3.47688553667556        2.91330065899332        0.25019304922646
C            4.07982143032344        0.93203352875836       -2.96601884333541
H            4.61855792979475        0.46895495713562       -0.93815015789653
C            3.41565415691390       -0.37107141327379       -3.24758521928167
H            5.10808472595280        0.92444970438061       -3.34162883604925
H            3.56728413000819        1.73271998498061       -3.50696750508178
C            3.97137104117008       -1.66301641227301       -3.01745441121344
C            5.23341366227980       -2.09408470098566       -2.57460937563408
C            5.43825807142404       -3.43232249843276       -2.38327163896583
C            4.41489972642496       -4.36504879041854       -2.61789853591525
C            3.17739910315696       -3.96733905141157       -3.04346547069503
C            2.94606857640902       -2.60098144622207       -3.24591480725976
H            6.01048268961827       -1.37448668292682       -2.38719939493518
H            6.40037624394581       -3.77916687251235       -2.04466906888339
H            4.61043012177866       -5.41233294960002       -2.45783816666665
H            2.38745009069697       -4.67374345325863       -3.22449133385834
N            1.80548078952200       -1.90112448700984       -3.60399971758339
C            2.09509043770249       -0.55774943107543       -3.57520105086381
H            0.85813681781928       -2.30048091897702       -3.56616113273446
H            1.37609689455622        0.22982928165461       -3.73538284280205
