48
Energy =
C     6.0957745   -0.5542293    1.7966239 
C     5.0344911    0.2542494    2.0444911 
C     5.8990859   -1.8600362    1.4694021 
C     4.6398670   -2.3466463    1.3942678 
C     3.5753533   -1.5416390    1.6325996 
C     3.7665043   -0.2358783    1.9674981 
H     5.2079400    1.2992841    2.2896340 
H     4.4939446   -3.3865604    1.1271485 
H     2.5707704   -1.9477015    1.5404076 
H     7.1008685   -0.1492296    1.8533948 
C     2.5798727    0.6768074    2.1901009 
C     2.2670228    1.5246876    0.9364317 
H     2.7931741    1.3484809    3.0507347 
H     1.6818888    0.0812064    2.4719385 
C     2.0045594    0.6560032   -0.2857213 
O     6.9699109   -2.7190901    1.1981918 
H     7.8785581   -2.2765991    1.2886228 
O     1.0299780   -0.3360689   -0.2400927 
N     1.1219892    2.4090203    1.2061109 
H     3.1560379    2.1563889    0.6954982 
H     0.2791442    1.8369781    1.4566203 
H     1.3364972    3.0336538    2.0191218 
N     2.5805950    0.9940696   -1.5512130 
C     4.0344973    0.8096562   -1.7126191 
H     1.9429416    1.3022698   -2.3179589 
C     4.7245790    2.1557025   -1.8813084 
O     5.5477423    2.6233906   -0.8644755 
O     4.5369732    2.9496184   -3.0125620 
H     3.8788741    2.5364238   -3.6547047 
C     4.3135984   -0.1434429   -2.8967128 
H     4.4854725    0.3666556   -0.7939274 
C     4.2451611   -1.5920271   -2.4648758 
H     5.3329480    0.0477610   -3.3052784 
H     3.6058563    0.0423249   -3.7330704 
C     3.1561120   -2.3748085   -2.4042404 
C     1.8678481   -2.1047499   -2.7334865 
C     0.9340926   -3.0832458   -2.5572679 
C     1.2984566   -4.3051040   -2.0628973 
C     2.5990909   -4.5550597   -1.7402265 
C     3.5035864   -3.5708626   -1.9243039 
H     1.5737755   -1.1321397   -3.1131075 
H    -0.1069121   -2.8856262   -2.8016988 
H     0.5468328   -5.0777847   -1.9209689 
H     2.9048082   -5.5166018   -1.3417674 
N     4.8925095   -3.6183674   -1.6332404 
C     5.2955845   -2.2950066   -2.0052561 
H     5.4818229   -4.3998484   -1.2616874 
H     6.3064679   -1.9089114   -1.8908552 
