48
Energy =
C    -4.3162780    1.9209342   -0.1823830 
C    -3.3046548    1.0952591    0.1876735 
C    -4.0462684    3.0847013   -0.8325280 
C    -2.7638459    3.4133466   -1.1093302 
C    -1.7486346    2.5920946   -0.7410540 
C    -2.0132464    1.4279399   -0.0866351 
H    -3.5365400    0.1662288    0.7016257 
H    -2.5599170    4.3415310   -1.6317348 
H    -0.7243117    2.8719753   -0.9770570 
H    -5.3415322    1.6473180    0.0416700 
C    -0.8808175    0.5064081    0.3094110 
C    -0.3081545   -0.2680147   -0.9033072 
H    -1.2066257   -0.2120392    1.0943101 
H    -0.0818120    1.1263409    0.7745809 
C     1.0033557   -0.9633819   -0.5439309 
O    -5.0659493    3.9575589   -1.2268319 
H    -5.9974456    3.6375953   -0.9861495 
O     1.1195044   -2.3489189   -0.6317202 
N    -1.3028184   -1.2257072   -1.4167566 
H    -0.0618153    0.4497604   -1.7174943 
H    -1.5893901   -1.8867168   -0.6563161 
H    -2.1567478   -0.7176207   -1.7450875 
N     2.0967752   -0.2179428    0.0260168 
C     3.0688175    0.2593177   -0.9863974 
H     2.5771646   -0.8510419    0.7061972 
C     2.4543690    1.3142364   -1.9048515 
O     2.2834791    1.0504868   -3.2586922 
O     2.0021896    2.5338029   -1.4009394 
H     2.1403493    2.5947370   -0.4013578 
C     3.7370568   -0.9053265   -1.7714991 
H     3.8750166    0.8006656   -0.4439327 
C     4.6313204   -1.7516868   -0.8909823 
H     4.3560980   -0.4916938   -2.5980957 
H     2.9665124   -1.5411553   -2.2647733 
C     5.8593477   -1.4292665   -0.4537574 
C     6.6040161   -0.3181828   -0.6902679 
C     7.8393653   -0.2327195   -0.1187463 
C     8.3072340   -1.2469564    0.6703393 
C     7.5426396   -2.3537210    0.8922250 
C     6.3240727   -2.4149016    0.3157295 
H     6.2367543    0.4878961   -1.3189255 
H     8.4559834    0.6462626   -0.2924261 
H     9.2934564   -1.1711804    1.1220428 
H     7.8992125   -3.1674643    1.5149441 
N     5.3778354   -3.4689328    0.4181083 
C     4.3096199   -2.9593493   -0.3918781 
H     5.4414877   -4.3731437    0.9407137 
H     3.3723746   -3.4833036   -0.5688421 
