48
Energy =
C     0.4960847    4.7878043    4.2184663 
C     0.3517393    4.4211157    2.9199224 
C     1.1312061    5.9479967    4.5346475 
C     1.6170596    6.7343077    3.5472978 
C     1.4757258    6.3725661    2.2468784 
C     0.8391770    5.2128867    1.9256319 
H    -0.1590613    3.4913225    2.6827351 
H     2.1208615    7.6574835    3.8125236 
H     1.8756017    7.0183652    1.4692879 
H     0.1024055    4.1507969    5.0031796 
C     0.6941317    4.7932369    0.4801153 
C     1.7091658    3.6924838    0.0781419 
H     0.7970219    5.6678908   -0.2025271 
H    -0.3436702    4.4196638    0.3216205 
C     1.4300569    3.1397131   -1.3135453 
O     1.2995579    6.3534602    5.8626082 
H     0.9000456    5.7151716    6.5418785 
O     0.4067623    3.6676198   -2.0917554 
N     3.0862131    4.2055402    0.1617422 
H     1.5976285    2.8238386    0.7665919 
H     3.1922158    5.0559255   -0.4433432 
H     3.3122209    4.4853865    1.1446218 
N     2.0487818    1.9250918   -1.7560115 
C     3.5066077    1.9321828   -2.0071879 
H     1.4365943    1.0921990   -1.8980753 
C     4.0009031    3.1606311   -2.7798099 
O     5.2397398    3.7015821   -2.4569654 
O     3.2796947    3.7346877   -3.8250680 
H     2.4111985    3.2417789   -3.9800849 
C     3.9360310    0.6047842   -2.6747097 
H     4.0254481    1.9781577   -1.0234293 
C     3.4173952    0.4512088   -4.0907412 
H     3.5801093   -0.2483181   -2.0559099 
H     5.0462914    0.5329916   -2.6753111 
C     4.0173169    0.8636656   -5.2200642 
C     5.2055544    1.4980504   -5.3957465 
C     5.5877512    1.8203969   -6.6645594 
C     4.7883828    1.5054143   -7.7281613 
C     3.6002998    0.8677593   -7.5285669 
C     3.2435728    0.5607686   -6.2635535 
H     5.8386728    1.7618295   -4.5534500 
H     6.5295750    2.3379073   -6.8288799 
H     5.0985379    1.7698200   -8.7355806 
H     2.9522853    0.6149775   -8.3604804 
N     2.0544402   -0.0903793   -5.8418026 
C     2.2463191   -0.1208329   -4.4221901 
H     1.2595479   -0.4530889   -6.4151740 
H     1.5400395   -0.5531501   -3.7190506 
