48
Energy =
C    -1.2767875    3.1573763   -1.1825976 
C    -0.6856082    1.9415176   -1.0667268 
C    -0.7765308    4.2272282   -0.5088349 
C     0.3140012    4.0730092    0.2758075 
C     0.9086104    2.8591313    0.3961398 
C     0.4067743    1.7839152   -0.2701999 
H    -1.0931384    1.0963885   -1.6153846 
H     0.7049285    4.9363742    0.8025721 
H     1.7915023    2.7556715    1.0240910 
H    -2.1491154    3.2720991   -1.8168224 
C     1.0860681    0.4370683   -0.1643104 
C     2.1210610    0.2397230   -1.2931567 
H     0.3187769   -0.3674337   -0.2070089 
H     1.5846178    0.3327985    0.8271596 
C     3.2560184    1.2472160   -1.2007253 
O    -1.3609450    5.4940359   -0.6077428 
H    -2.1733403    5.5267045   -1.2140326 
O     4.0412989    1.3204909   -0.0541087 
N     2.6413720   -1.1355578   -1.2595144 
H     1.6213116    0.4086627   -2.2756211 
H     3.0824343   -1.3160356   -0.3245228 
H     1.8510293   -1.8143180   -1.3647373 
N     3.6392010    2.0098577   -2.3484483 
C     4.9130408    1.6407836   -2.9859476 
H     3.0260020    2.7897120   -2.6795317 
C     5.6223655    2.8800159   -3.5235363 
O     5.5045940    3.2277620   -4.8650956 
O     6.3477681    3.7188137   -2.6798821 
H     6.2655021    3.4411240   -1.7115897 
C     4.6273080    0.5892371   -4.0793092 
H     5.6111307    1.2028860   -2.2315091 
C     5.9019930   -0.0673391   -4.5594200 
H     4.0930437    1.0647568   -4.9334922 
H     3.9434994   -0.1936811   -3.6850825 
C     6.5416714   -1.0919313   -3.9748473 
C     6.2158231   -1.7997418   -2.8626852 
C     7.0531562   -2.7996793   -2.4635174 
C     8.1915932   -3.0714124   -3.1713449 
C     8.5002911   -2.3434465   -4.2822773 
C     7.6544229   -1.3615513   -4.6586048 
H     5.3159107   -1.5802682   -2.2946535 
H     6.8159585   -3.3807932   -1.5755781 
H     8.8557585   -3.8676633   -2.8446616 
H     9.4027565   -2.5407012   -4.8508105 
N     7.7977607   -0.4795144   -5.7627942 
C     6.6242816    0.3337179   -5.6205187 
H     8.5514745   -0.4380210   -6.4865376 
H     6.3775678    1.1821789   -6.2590169 
