48
Energy =
C    -2.0792504    5.0041987   -0.7233048 
C    -1.6225955    3.8240029   -0.2330566 
C    -1.5832924    5.4983877   -1.8889815 
C    -0.6305551    4.8083503   -2.5554099 
C    -0.1745366    3.6251002   -2.0731964 
C    -0.6674860    3.1238190   -0.9061247 
H    -2.0256124    3.4467291    0.7030838 
H    -0.2329000    5.2190682   -3.4772127 
H     0.5993680    3.0929029   -2.6201090 
H    -2.8410681    5.5525757   -0.1796646 
C    -0.1513454    1.8091205   -0.3530014 
C     1.1646372    1.9475795    0.4535982 
H    -0.0012442    1.0921937   -1.1903399 
H    -0.9240607    1.3434564    0.2980474 
C     2.3397020    2.3638966   -0.4263761 
O    -2.0363555    6.7088229   -2.4233334 
H    -2.7332638    7.1757199   -1.8536239 
O     2.5301876    3.7166481   -0.6844928 
N     0.9915814    2.8427777    1.6097497 
H     1.4230475    0.9397075    0.8503628 
H     0.8453285    3.8292553    1.2831351 
H     0.1449089    2.5630594    2.1572797 
N     2.9998097    1.3541342   -1.2260915 
C     4.1551106    1.6219971   -2.1246083 
H     2.5440535    0.4148527   -1.2572167 
C     4.5359351    3.0956101   -2.3143227 
O     3.9947427    3.8226106   -3.3717957 
O     5.4636468    3.7182562   -1.4765240 
H     5.6441888    3.1732156   -0.6465164 
C     3.9019284    0.9455286   -3.4958475 
H     5.0528700    1.1488837   -1.6710896 
C     3.9070019   -0.5652524   -3.4076580 
H     4.6803900    1.2546954   -4.2298349 
H     2.9297270    1.3021303   -3.9054467 
C     4.9824075   -1.3586707   -3.2843229 
C     6.3004468   -1.0363315   -3.2315131 
C     7.2089760   -2.0452519   -3.1006746 
C     6.7914991   -3.3455999   -3.0269444 
C     5.4625579   -3.6451214   -3.0848021 
C     4.5833231   -2.6294364   -3.2140855 
H     6.6336877   -0.0046037   -3.2954486 
H     8.2707970   -1.8145783   -3.0568600 
H     7.5219379   -4.1441309   -2.9237304 
H     5.1150173   -4.6711517   -3.0297059 
N     3.1678866   -2.7226104   -3.2941902 
C     2.8083469   -1.3408135   -3.4187918 
H     2.5574901   -3.5711544   -3.2650618 
H     1.7871347   -0.9778538   -3.5043641 
