48
Energy =
C     3.0747484   -2.4827881   -8.1105676 
C     3.0145705   -1.9647753   -6.8580196 
C     2.2007472   -3.4521395   -8.4914632 
C     1.2715145   -3.8966064   -7.6149669 
C     1.2063711   -3.3821250   -6.3605346 
C     2.0820832   -2.4130309   -5.9723805 
H     3.7175982   -1.1899923   -6.5646903 
H     0.5802153   -4.6695979   -7.9326195 
H     0.4505332   -3.7509895   -5.6716709 
H     3.8234609   -2.1191350   -8.8056155 
C     1.9995654   -1.8210592   -4.5800407 
C     0.8362714   -0.8074871   -4.4578706 
H     2.9634888   -1.3259244   -4.3051930 
H     1.8408713   -2.6569156   -3.8543086 
C     0.6513626   -0.3936207   -3.0158021 
O     2.2342261   -4.0061452   -9.7751773 
H     2.9618519   -3.6242243  -10.3693963 
O     0.1017340   -1.3067301   -2.1230471 
N     1.0198604    0.3605108   -5.3438925 
H    -0.1135398   -1.3218851   -4.7275194 
H     2.0171169    0.6726814   -5.3151509 
H     0.8364934    0.0659422   -6.3325108 
N     1.2220472    0.8200307   -2.5047144 
C     2.3388892    0.6930641   -1.5571083 
H     0.8406316    1.7375695   -2.8327311 
C     2.2396496    1.7494746   -0.4573753 
O     2.0868629    3.0855681   -0.8103395 
O     2.3963452    1.4288780    0.8912746 
H     2.4714599    0.4342883    1.0444275 
C     3.6515327    0.8223991   -2.3563906 
H     2.2893526   -0.3073603   -1.0621992 
C     4.8068860    0.1617881   -1.6407992 
H     3.8783492    1.8880283   -2.5774404 
H     3.5170018    0.3338376   -3.3508264 
C     5.6200053    0.7169131   -0.7268579 
C     5.6501271    1.9839814   -0.2398877 
C     6.5829226    2.2926589    0.7058056 
C     7.4627170    1.3421235    1.1449995 
C     7.4136095    0.0759291    0.6418498 
C     6.4816604   -0.2049158   -0.2929133 
H     4.9489396    2.7409555   -0.5794594 
H     6.6207489    3.2989949    1.1169880 
H     8.2003404    1.5957482    1.9027120 
H     8.1000520   -0.6916761    0.9835398 
N     6.2537096   -1.4550287   -0.9290530 
C     5.1460168   -1.1328990   -1.7802552 
H     6.7597782   -2.3633744   -0.8093103 
H     4.6397537   -1.8480054   -2.4289177 
