48
Energy =
C    -1.3429851    4.2463080   -2.4311564 
C    -1.1612587    3.0543147   -1.8081290 
C    -1.3753107    4.3099566   -3.7892693 
C    -1.2241636    3.1792362   -4.5150187 
C    -1.0401017    1.9856539   -3.8976513 
C    -1.0068225    1.9153145   -2.5376496 
H    -1.1362052    3.0195494   -0.7218261 
H    -1.2496057    3.2441879   -5.5970396 
H    -0.9111414    1.0874802   -4.4984745 
H    -1.4616459    5.1481979   -1.8398850 
C    -0.7869344    0.5839495   -1.8477576 
C     0.7064772    0.2409500   -1.6235554 
H    -1.2492234   -0.2258665   -2.4573749 
H    -1.3237264    0.5658860   -0.8741820 
C     1.5092908    0.2591680   -2.9170995 
O    -1.5623356    5.5210766   -4.4630225 
H    -1.6456034    6.3245685   -3.8490483 
O     1.1994773   -0.6583924   -3.9126641 
N     1.2957561    1.0943688   -0.5743562 
H     0.7618817   -0.8187829   -1.2826100 
H     1.2624508    2.1002372   -0.8674014 
H     0.7354217    1.0109017    0.3062932 
N     2.3102406    1.3891840   -3.2732933 
C     3.6739177    1.4346316   -2.7270673 
H     1.8912240    2.1493034   -3.8539428 
C     4.0182354    2.8526493   -2.2797328 
O     4.1734419    3.8486392   -3.2379573 
O     4.1386184    3.1972588   -0.9328782 
H     3.9332860    2.4204300   -0.3205671 
C     4.6387685    0.9125893   -3.8087277 
H     3.7514622    0.7688853   -1.8359053 
C     6.0190063    0.6475733   -3.2478597 
H     4.6770236    1.6203086   -4.6658608 
H     4.2325494   -0.0399342   -4.2206442 
C     7.0868253    1.4630586   -3.2819564 
C     7.2312159    2.6945778   -3.8365001 
C     8.4381228    3.3196950   -3.7233000 
C     9.4723634    2.7124329   -3.0670269 
C     9.3057619    1.4759021   -2.5185580 
C     8.1023302    0.8778461   -2.6431613 
H     6.4149316    3.1863199   -4.3552225 
H     8.5758202    4.3091261   -4.1532022 
H    10.4299460    3.2194433   -2.9787011 
H    10.1148361    0.9817681   -1.9915362 
N     7.7222520   -0.3955695   -2.1419472 
C     6.3579457   -0.4646130   -2.5721300 
H     8.2869676   -1.0933735   -1.6057033 
H     5.6910791   -1.2983962   -2.3638747 
