48
 energy: -9.075465165337 gnorm: 0.000973938383 xtb: 6.6.0 (2ccbbd7)
C           -2.40288053447220        4.49550657859666       -1.62087342574534
C           -2.17519478012420        3.16905420320157       -1.90312047310941
C           -1.41670483949791        5.45310450013075       -1.86196241812114
C           -0.20131432468041        5.02754233911488       -2.39668595459027
C            0.01475616600522        3.70030327310666       -2.67808304858226
C           -0.96487133749647        2.74836480572585       -2.43823044990768
H           -2.94459636084968        2.44085589844694       -1.70959271388715
H            0.56274817305377        5.76223341989644       -2.58252455451544
H            0.96238161413030        3.39181211001662       -3.08016094518069
H           -3.34568336547944        4.80828197870029       -1.20844495663839
C           -0.72493030992896        1.29616639263221       -2.72795239574232
C            0.43319685931975        0.68606024637405       -1.92003185317175
H           -0.51839139658948        1.17353557297689       -3.79664357635506
H           -1.64510537210341        0.73667359749508       -2.53059957306298
C            1.76568541947953        1.09031338560362       -2.51582731673219
O           -1.61366125921004        6.79309841444335       -1.58768122617432
H           -2.51637979084314        6.93384690628151       -1.22863535360221
O            1.91814023238084        0.99165818677001       -3.71737652816828
N            0.34481304677551        1.03530631999074       -0.50724406394262
H            0.39040882726142       -0.41300089003099       -1.99266029359835
H            0.39531799510329        2.04084217136901       -0.41358055879889
H           -0.55107355363967        0.75169939319705       -0.13169920041484
N            2.74142171781520        1.56361226875748       -1.67001766236012
C            4.11159026590754        1.89091971471343       -2.09746181059595
H            2.57379317858202        1.58378955146026       -0.65758155521347
C            4.14475484285670        3.23517372214503       -2.76550042993180
O            5.11946021605705        4.12170420264316       -2.40706643837068
O            3.20139172847464        3.47433974481757       -3.73202693210004
H            2.70689647894286        2.62758061314508       -3.85736077419747
C            4.70239228329100        0.79234594636717       -2.99316780027042
H            4.72958331910292        1.95788699404611       -1.18947506590077
C            6.19200391549963        0.63938277160920       -2.94126988082393
H            4.38247376982836        0.95955899148756       -4.02641402191633
H            4.24751099502861       -0.16109798095593       -2.70279518064960
C            7.20408202808871        1.61315968119091       -2.66108790414178
C            7.18412643356595        2.98241170479436       -2.35608774095352
C            8.35636683780750        3.64104500762848       -2.13507553050694
C            9.58804126972380        2.97144376422773       -2.20687950500144
C            9.64550251453222        1.63860332411241       -2.50784919892926
C            8.44759327933985        0.95028473734943       -2.73959658958118
H            6.11948085406395        3.59341664016311       -2.34988298495314
H            8.33555599114271        4.69443641608944       -1.91022069465564
H           10.49880874912121        3.51822681104994       -2.02744787468745
H           10.58254053124720        1.11527032979969       -2.57222093726805
N            8.19917124717339       -0.36842801509797       -3.06774024133996
C            6.84460786780411       -0.54302699783688       -3.19220251529185
H            8.91875821457162       -1.08126883757289       -3.20173045855948
H            6.36781982210430       -1.47600772543299       -3.44612671986311
