48
Energy =
C    -2.3563319   -2.9256257   -2.3301827 
C    -1.7742245   -1.7071025   -2.4647303 
C    -2.2988498   -3.5833051   -1.1416113 
C    -1.6596023   -3.0152055   -0.0944729 
C    -1.0793548   -1.7955508   -0.2226115 
C    -1.1263326   -1.1338970   -1.4116807 
H    -1.8311703   -1.1955013   -3.4214302 
H    -1.6146146   -3.5506010    0.8475376 
H    -0.5650473   -1.3599462    0.6297747 
H    -2.8681307   -3.3726647   -3.1755291 
C    -0.4735631    0.2276632   -1.5639156 
C     1.0097392    0.1839874   -2.0181688 
H    -0.5479902    0.7867893   -0.6044323 
H    -1.0529637    0.8291013   -2.2988152 
C     1.9643700   -0.2667622   -0.9178856 
O    -2.8891562   -4.8396630   -0.9699947 
H    -3.3423220   -5.1994994   -1.8025597 
O     1.8352671   -1.5266714   -0.3414215 
N     1.1820045   -0.6106515   -3.2439173 
H     1.2954789    1.2320710   -2.2561433 
H     1.0290703   -1.6269456   -3.0304975 
H     0.4767457   -0.3244125   -3.9613272 
N     2.8484250    0.6810093   -0.3027131 
C     4.2586489    0.4905316   -0.7308085 
H     2.7792047    0.4810444    0.7241790 
C     5.1951750    1.2689924    0.1985699 
O     6.3585492    0.6652751    0.6581284 
O     4.9507339    2.5992252    0.5433561 
H     4.0750259    2.9264409    0.1633298 
C     4.4460962    0.9822994   -2.1983690 
H     4.5915274   -0.5514712   -0.5911612 
C     4.5638053    0.0030982   -3.3746436 
H     5.3704465    1.6046616   -2.2474513 
H     3.6305079    1.6967374   -2.4405330 
C     4.3635629   -1.3385513   -3.5218194 
C     4.0043724   -2.3180045   -2.6423022 
C     3.8662487   -3.5976450   -3.0902332 
C     4.0878112   -3.8997315   -4.3994468 
C     4.4485105   -2.9233037   -5.2712616 
C     4.5781058   -1.6626216   -4.8083331 
H     3.8126090   -2.1450678   -1.6053475 
H     3.5746116   -4.3826921   -2.3956446 
H     3.9754276   -4.9237340   -4.7467309 
H     4.6281974   -3.1463070   -6.3175166 
N     4.9363357   -0.5319306   -5.5789908 
C     4.8987615    0.4919394   -4.5876149 
H     5.1628385   -0.4691555   -6.5984710 
H     5.1107039    1.5384840   -4.7976976 
