48
Energy =
C     0.7243533   -1.3463300    3.7916654 
C     1.8396431   -0.7936719    3.2474205 
C    -0.0400475   -0.6297726    4.6574575 
C     0.3170351    0.6349515    4.9745080 
C     1.4294988    1.1921822    4.4326947 
C     2.1988475    0.4814610    3.5615327 
H     2.4451745   -1.3784848    2.5582750 
H    -0.3005638    1.1953816    5.6681496 
H     1.6971457    2.2106117    4.7012355 
H     0.4440912   -2.3621689    3.5330422 
C     3.4368304    1.1107544    2.9486923 
C     3.1946207    1.7907110    1.5716761 
H     4.2380872    0.3437027    2.8460277 
H     3.8515634    1.8687709    3.6495461 
C     3.0462370    0.8203026    0.4095906 
O    -1.1941644   -1.1681899    5.2342928 
H    -1.3966774   -2.1192842    4.9462355 
O     3.3245472   -0.5345681    0.5632979 
N     2.0632422    2.7328971    1.6318480 
H     4.1142111    2.3675796    1.3154886 
H     1.1687669    2.2141898    1.8005925 
H     2.2004981    3.4025907    2.4244820 
N     2.8909395    1.3352265   -0.9145155 
C     4.0591353    1.2361697   -1.8072859 
H     1.9737325    1.7527891   -1.1840652 
C     4.2838375    2.5358309   -2.5726045 
O     5.4958268    3.2016616   -2.4406458 
O     3.3084506    3.0831206   -3.4090207 
H     2.4707385    2.5240501   -3.4187749 
C     3.8686857    0.0205645   -2.7367297 
H     4.9846057    1.0767795   -1.2027723 
C     5.1569020   -0.3533196   -3.4364062 
H     3.0577620    0.2005856   -3.4730961 
H     3.5378319   -0.8472921   -2.1201750 
C     5.5846796    0.0694016   -4.6371850 
C     4.9887696    0.8938501   -5.5366020 
C     5.6500397    1.1760942   -6.6955038 
C     6.8826992    0.6356466   -6.9370308 
C     7.4623695   -0.1894221   -6.0196004 
C     6.7882441   -0.4533966   -4.8805031 
H     4.0145344    1.3318191   -5.3461565 
H     5.1964920    1.8407663   -7.4267575 
H     7.4050393    0.8698339   -7.8610412 
H     8.4419045   -0.6216410   -6.1923323 
N     7.2164902   -1.2709947   -3.8003833 
C     6.1047417   -1.1448562   -2.9043776 
H     8.1001338   -1.8189881   -3.6921249 
H     6.0484690   -1.6091408   -1.9218155 
