48
Energy =
C     2.1769908   -2.0069781    3.1056417 
C     1.7398174   -2.3063189    1.8561684 
C     2.0409955   -0.7449068    3.5934336 
C     1.4639642    0.2087094    2.8278507 
C     1.0246376   -0.0852610    1.5781368 
C     1.1634080   -1.3459847    1.0819566 
H     1.8578527   -3.3187103    1.4783287 
H     1.3588749    1.2110698    3.2286526 
H     0.5663222    0.6970761    0.9761895 
H     2.6368787   -2.7792986    3.7126571 
C     0.6912826   -1.6711982   -0.3212645 
C     1.7451430   -1.3767554   -1.4165955 
H    -0.2296735   -1.0845066   -0.5413762 
H     0.3854875   -2.7382281   -0.3832355 
C     2.1872054    0.0804079   -1.4190030 
O     2.4875533   -0.4016942    4.8735452 
H     2.8913069   -1.1757681    5.3893211 
O     1.2490523    1.0657237   -1.6991722 
N     2.8760534   -2.3213587   -1.3298217 
H     1.2489570   -1.5144812   -2.4061402 
H     3.3243642   -2.2595702   -0.3852751 
H     2.5189760   -3.3008353   -1.4351457 
N     3.4485834    0.4703445   -0.8587618 
C     4.4855390    0.9715133   -1.7759262 
H     3.5837160    0.3972277    0.1733495 
C     4.0688835    2.2855968   -2.4433839 
O     3.5995755    2.2922423   -3.7523899 
O     4.1558656    3.4996211   -1.7596634 
H     4.3823735    3.3663967   -0.7855021 
C     4.8759021   -0.1427300   -2.7781943 
H     5.3839535    1.2130146   -1.1657508 
C     6.1891535    0.1500858   -3.4736706 
H     4.0562778   -0.3054500   -3.5106233 
H     4.9734855   -1.1081527   -2.2326008 
C     6.3758656    0.5362976   -4.7485441 
C     5.4741367    0.7519686   -5.7418150 
C     5.9351675    1.1441478   -6.9640355 
C     7.2753229    1.3097045   -7.1767940 
C     8.1632768    1.0845538   -6.1678242 
C     7.6829631    0.6993887   -4.9667779 
H     4.4079223    0.6279095   -5.5821637 
H     5.2309361    1.3308990   -7.7715329 
H     7.6337608    1.6251454   -8.1535405 
H     9.2296899    1.2122148   -6.3195592 
N     8.4348555    0.4144113   -3.7960898 
C     7.3924802    0.0671650   -2.8778290 
H     9.4697180    0.4465165   -3.6487470 
H     7.5605948   -0.2195762   -1.8424772 
