48
Energy =
C     0.9359138   -2.0146032   -4.4533805 
C     1.1835875    0.4674863   -2.2336660 
C    -0.2884746   -1.6162674   -4.9789141 
C    -0.9452444   -0.3909294   -4.5735393 
C    -0.7536864    0.7692603   -3.6904872 
C     0.1476542    1.2363033   -2.6589332 
H     1.7944785    0.5528461   -1.3671142 
H    -1.8606190   -0.2941684   -5.1519813 
H    -1.5457901    1.4939343   -3.8613751 
H     1.4977831   -2.9346628   -4.5751094 
C     0.0588820    2.6340007   -2.0730418 
C     1.4211286    3.4279278   -2.0780451 
H    -0.3254154    2.5566115   -1.0308493 
H    -0.6872018    3.2303824   -2.6404923 
C     2.3467685    3.1108874   -0.8978925 
O    -0.9243767   -2.4107408   -5.9348933 
H    -0.3997860   -3.2442064   -6.1782004 
O     1.9362771    3.5770125    0.3462872 
N     2.0835821    3.4048208   -3.3975326 
H     1.1683877    4.4935965   -1.8599691 
H     2.0682482    2.4437544   -3.7940585 
H     1.4465952    3.9043588   -4.0644892 
N     3.4568534    2.1816548   -0.9044640 
C     4.2914287    1.9296868   -2.1004767 
H     3.3825160    1.4208703   -0.1925517 
C     4.3801895    3.1268096   -3.0838881 
O     3.2756404    3.9571645   -3.4209295 
O     5.6215285    3.5178133   -3.6011316 
H     6.3969648    2.9926840   -3.2313700 
C     4.1421849    0.4501078   -2.6678156 
H     5.3144718    1.9176041   -1.6695744 
C     3.4209280    0.3133511   -4.0059815 
H     3.7176221   -0.2436033   -1.9167333 
H     5.1600232    0.0247102   -2.8062245 
C     3.9866818    0.7048898   -5.1671028 
C     5.2686733    1.0789105   -5.4340531 
C     5.5932776    1.4496416   -6.7054957 
C     4.6449422    1.4373675   -7.6871592 
C     3.3714175    1.0525304   -7.3990327 
C     3.0820644    0.6914038   -6.1299431 
H     6.0316501    1.0825401   -4.6664653 
H     6.6087540    1.7610311   -6.9368739 
H     4.9053037    1.7380841   -8.6986412 
H     2.6036608    1.0386046   -8.1650204 
N     1.8285743    0.2815632   -5.6350140 
C     2.1081566   -0.0714728   -4.2488336 
H     0.9656887    0.2372046   -6.2209847 
H     0.8829725   -0.8410558   -3.2471686 
