48
Energy =
C    -2.0215588    5.9504983   -1.3003819 
C    -1.1426836    5.3869810   -2.1674105 
C    -1.6732439    6.1392575    0.0005933 
C    -0.4460458    5.7621081    0.4248236 
C     0.4375549    5.2016797   -0.4384331 
C     0.0933310    5.0050111   -1.7410829 
H    -1.4369980    5.2440756   -3.2034591 
H    -0.1808700    5.9109795    1.4654477 
H     1.4170464    4.8975146   -0.0761183 
H    -3.0034587    6.2500488   -1.6503383 
C     1.0782402    4.3791074   -2.7075086 
C     0.9962760    2.8298305   -2.7976394 
H     2.1127261    4.6868594   -2.4253107 
H     0.9250815    4.8064898   -3.7219163 
C     1.4360032    2.1248859   -1.5188977 
O    -2.5549534    6.7200392    0.9184911 
H    -3.4574873    6.9623497    0.5251560 
O     0.7028526    2.2743509   -0.3486735 
N    -0.3425102    2.3863338   -3.2205511 
H     1.7273644    2.5164994   -3.5763671 
H    -1.0277508    2.5600027   -2.4447129 
H    -0.6573686    2.9323009   -4.0554543 
N     2.4316111    1.0906028   -1.5520832 
C     3.8568765    1.4455098   -1.7428986 
H     2.0885235    0.1069060   -1.6121974 
C     4.1212374    2.9508571   -1.8310665 
O     4.4283421    3.5535328   -3.0402309 
O     3.9519691    3.7751571   -0.7210965 
H     3.6248094    3.2527238    0.0818744 
C     4.4770619    0.6113823   -2.8968187 
H     4.3966199    1.1411958   -0.8188461 
C     3.7504283    0.7261109   -4.2265457 
H     4.4761412   -0.4597864   -2.5971201 
H     5.5471263    0.8852730   -3.0160663 
C     4.1301254    1.4254927   -5.3132894 
C     5.2239793    2.2053527   -5.5180657 
C     5.3804403    2.8022857   -6.7346770 
C     4.4568894    2.6078830   -7.7230607 
C     3.3706359    1.8163266   -7.5004862 
C     3.2354923    1.2412089   -6.2872497 
H     5.9557161    2.3731533   -4.7345836 
H     6.2421752    3.4399761   -6.9167757 
H     4.5887875    3.0866567   -8.6901115 
H     2.6306994    1.6477216   -8.2755529 
N     2.1937973    0.3755196   -5.8654549 
C     2.6098467    0.0765752   -4.5281557 
H     1.3534003    0.0418628   -6.3910950 
H     2.0762335   -0.5964925   -3.8631162 
