48
 energy: -9.170410806715 gnorm: 0.000389700313 xtb: 6.6.0 (2ccbbd7)
C            0.06818505069645        4.70751052535583       -3.79458289637975
C            0.96240352437394        4.24433575147305       -2.86032890795015
C            0.32084237178808        5.88881840869005       -4.49222539663177
C            1.50276971323627        6.57595374592986       -4.21701748827297
C            2.39109121726896        6.10281767421895       -3.28101303396741
C            2.12855816412112        4.93653395930741       -2.58087241405791
H            0.76104795128034        3.32791116046732       -2.33473513313592
H            1.70373505505835        7.48152489572257       -4.76116602104657
H            3.30934257456288        6.63244542202800       -3.09361860681156
H           -0.83459467906730        4.15993595353561       -3.99868709096823
C            3.17062741687077        4.39160091193188       -1.59118690759742
C            2.59072149022777        3.52354766390608       -0.38038930413853
H            3.27365161996343        5.38787890351300       -0.92358516348910
H            4.27361744534025        4.86079808165375       -1.61349922996965
C            2.12520834076935        2.14523759347689       -0.81169055125704
O           -0.55738407965609        6.38490313319390       -5.43669132581156
H           -1.33201626329233        5.78784553273861       -5.52062373561346
O            0.92315499028105        1.96287336618765       -0.87986312321595
N            3.53888775997500        3.45999712240966        0.72539812676119
H            1.68204299705679        4.01767380064681        0.00193012670683
H            4.45596598393332        3.28936655658801        0.32450510784739
H            3.60557811073591        4.35501410856128        1.19407233604533
N            2.99240944090107        1.12549400427798       -1.14329053884232
C            4.44861033784417        1.22997457849935       -1.32846028979098
H            2.59059214441475        0.27827458001797       -1.54095488191902
C            4.82705495043270        2.63518990190889       -1.65143924284954
O            3.91917532150963        3.35545619966957       -2.41788001881490
O            5.98597869176379        3.17673816906003       -1.13192485052437
H            6.57937217523937        2.46538304747901       -0.80272077500105
C            4.93265240401313        0.28227161923164       -2.42287748192908
H            4.92533376566177        0.96053240419424       -0.37623453680125
C            4.69767046194259       -1.17758940892530       -2.18244435152735
H            6.00216851533744        0.44403375164471       -2.59346873688089
H            4.43864733279458        0.56904764423665       -3.35665176258310
C            4.18273330150246       -1.86329770620336       -1.03257766410682
C            3.67630738355406       -1.45110154366482        0.21601896433471
C            3.26475359572108       -2.39476146819124        1.11563545720229
C            3.32891921295785       -3.76359410381366        0.81480161608923
C            3.80127790759212       -4.19579890045196       -0.39281579526460
C            4.23028108765175       -3.24270274203056       -1.32503138027312
H            3.57723748093523       -0.40718597539452        0.44482568505765
H            2.87154393532620       -2.08346632973198        2.06934229997737
H            2.99345130420103       -4.48215483644423        1.54426083855207
H            3.84840743822388       -5.24144646612333       -0.63908035033123
N            4.73965215321201       -3.38687175289756       -2.60094827617842
C            5.01694252843874       -2.14326733369274       -3.10556983132061
H            4.87551668755407       -4.28033854178637       -3.07746995655892
H            5.43893353692929       -1.95744526585589       -4.08010613005637
