48
Energy =
C     7.0279615    1.4456716    0.5413230 
C     5.8450688    1.5165106    1.2015677 
C     7.6118775    0.2391868    0.3128768 
C     7.0129477   -0.8885372    0.7574241 
C     5.8261077   -0.8246513    1.4116745 
C     5.2324151    0.3805230    1.6356804 
H     5.3842673    2.4877473    1.3619712 
H     7.4875354   -1.8446533    0.5662278 
H     5.3463035   -1.7456645    1.7331507 
H     7.4966155    2.3563657    0.1828146 
C     3.8758339    0.4535238    2.3040702 
C     2.7579644    0.8222256    1.3009565 
H     3.9158923    1.2153597    3.1130991 
H     3.6280131   -0.5156562    2.7929545 
C     2.7193220   -0.1213904    0.1087393 
O     8.8163090    0.1282095   -0.3880258 
H     9.1888682    1.0185826   -0.7030587 
O     2.6038406   -1.4968437    0.2959716 
N     1.4579583    0.8523020    1.9889574 
H     2.9638900    1.8390593    0.8900238 
H     1.2424673   -0.0953901    2.3840427 
H     1.4930299    1.5279258    2.7885345 
N     2.8685644    0.3955558   -1.2162382 
C     4.1219538    0.0933923   -1.9284523 
H     2.0883656    0.9444849   -1.6442771 
C     4.7037030    1.3390243   -2.5887252 
O     3.8595136    2.3556371   -3.0191765 
O     6.0671870    1.4488955   -2.8616503 
H     6.5926509    0.6596252   -2.5122847 
C     3.8796779   -1.0362076   -2.9471101 
H     4.8893650   -0.2662749   -1.2105945 
C     2.7822873   -0.7049444   -3.9382486 
H     3.6301628   -1.9683294   -2.3956525 
H     4.8216774   -1.2498425   -3.4993251 
C     1.4862243   -1.0484775   -3.8535685 
C     0.8339467   -1.7695042   -2.9046461 
C    -0.5084138   -1.9638219   -3.0463220 
C    -1.1731866   -1.4384003   -4.1195155 
C    -0.4994619   -0.7128024   -5.0565159 
C     0.8288271   -0.5367279   -4.8959638 
H     1.3538534   -2.1774302   -2.0426227 
H    -1.0526507   -2.5348717   -2.2976903 
H    -2.2441095   -1.5944078   -4.2229505 
H    -1.0127048   -0.2809912   -5.9090157 
N     1.7033910    0.2009072   -5.7374407 
C     2.9480908    0.0507774   -5.0386953 
H     1.4963817    0.7071982   -6.6292458 
H     3.8825224    0.5360761   -5.3235835 
