48
Energy =
C    -0.7151962    4.7142391   -6.5357098 
C     0.1711512    3.7919229   -6.0833039 
C    -1.8905486    4.9113865   -5.8810437 
C    -2.1702588    4.1838310   -4.7758111 
C    -1.2873386    3.2602133   -4.3182242 
C    -0.1115268    3.0556826   -4.9729545 
H     1.1088987    3.6507199   -6.6148685 
H    -3.1105020    4.3524853   -4.2619904 
H    -1.5294335    2.6875135   -3.4261530 
H    -0.4804354    5.2946385   -7.4213742 
C     0.8798747    2.0390806   -4.4526144 
C     1.7084397    2.5942367   -3.2702934 
H     1.5578962    1.7033850   -5.2682178 
H     0.3225485    1.1312358   -4.1248899 
C     2.4454909    1.4862533   -2.5522513 
O    -2.8256926    5.8539241   -6.3203863 
H    -2.5430597    6.3583174   -7.1537403 
O     2.0764627    1.1523225   -1.2562272 
N     2.6442666    3.6346242   -3.7258770 
H     1.0231518    3.0231531   -2.4985879 
H     3.2314222    3.2740583   -4.5159658 
H     2.1108818    4.4613280   -4.0843495 
N     3.4631752    0.7203780   -3.2080119 
C     4.7890128    0.6912421   -2.5673073 
H     3.2612583    0.2444487   -4.1146370 
C     5.7559481    1.6354709   -3.2767547 
O     6.6725886    1.1367535   -4.1959172 
O     5.7377753    3.0084200   -3.0380097 
H     4.9536383    3.2671891   -2.4550757 
C     5.3084917   -0.7632606   -2.5469053 
H     4.7246147    1.0454613   -1.5120032 
C     4.4134610   -1.6630664   -1.7239216 
H     6.3414884   -0.7979754   -2.1351906 
H     5.3744149   -1.1508397   -3.5883328 
C     4.3696025   -1.7489831   -0.3853015 
C     5.1047625   -1.0995697    0.5535683 
C     4.8589770   -1.3675242    1.8684346 
C     3.8935593   -2.2701676    2.2206539 
C     3.1680527   -2.9101817    1.2598039 
C     3.4303058   -2.6282927   -0.0336938 
H     5.8685478   -0.3805458    0.2750904 
H     5.4305963   -0.8578647    2.6402312 
H     3.7005568   -2.4758333    3.2704559 
H     2.3962359   -3.6258387    1.5210648 
N     2.7932133   -3.1771271   -1.1788219 
C     3.4842387   -2.4916851   -2.2314921 
H     2.0335025   -3.8929016   -1.2347317 
H     3.2680449   -2.6139043   -3.2897184 
