48
Energy =
C     2.2881582   -0.6373138    5.1792562 
C     2.2918699   -1.1390655    3.9183635 
C     1.4918683    0.4182813    5.4923457 
C     0.6975691    0.9589231    4.5425044 
C     0.6952090    0.4592319    3.2813137 
C     1.5130130   -0.5788799    2.9476493 
H     2.9170765   -1.9996281    3.6983981 
H     0.0574107    1.7936745    4.8057859 
H     0.0223052    0.8926327    2.5486748 
H     2.9179674   -1.0879818    5.9387039 
C     1.4985061   -1.1610894    1.5393414 
C     2.4991645   -0.5404229    0.5140003 
H     0.4680936   -1.0828516    1.1259877 
H     1.7011245   -2.2528790    1.6029628 
C     2.0955899    0.8305105   -0.0233400 
O     1.4616886    0.9564934    6.7830590 
H     2.0965616    0.5057535    7.4325621 
O     1.3622256    1.7239672    0.7411166 
N     3.8926064   -0.5179973    1.0063122 
H     2.4452502   -1.2060771   -0.3799313 
H     4.0001118   -0.9567060    1.9455556 
H     4.5085823   -1.0671279    0.3645560 
N     2.2962296    1.1506982   -1.4054576 
C     3.6809658    1.3486202   -1.8685108 
H     1.4806852    1.0840593   -2.0550605 
C     3.9413316    2.8299487   -2.1340523 
O     3.8550875    3.3391104   -3.4261286 
O     4.2392686    3.7069683   -1.0930334 
H     4.0813630    3.2801257   -0.1902182 
C     3.9149801    0.4585397   -3.1115925 
H     4.4128584    1.0563295   -1.0787934 
C     5.3882269    0.3248340   -3.4372708 
H     3.3733360    0.8797047   -3.9898783 
H     3.4781365   -0.5482274   -2.9411497 
C     6.2270873   -0.6276628   -2.9973794 
C     5.9844888   -1.7085010   -2.2114657 
C     7.0266627   -2.5315623   -1.9003449 
C     8.2815514   -2.2661631   -2.3742434 
C     8.5013994   -1.1769425   -3.1639285 
C     7.4539593   -0.3787820   -3.4586112 
H     4.9895576   -1.9267201   -1.8400143 
H     6.8592839   -3.4043162   -1.2739374 
H     9.1076269   -2.9262477   -2.1215515 
H     9.4905481   -0.9513158   -3.5479008 
N     7.4691181    0.7978032   -4.2529189 
C     6.0923480    1.1939857   -4.1851722 
H     8.2664121    1.2505213   -4.7561201 
H     5.6848231    2.0868880   -4.6582114 
