48
Energy =
C    -3.0643895    4.7341663   -2.2372180 
C    -2.5751633    3.7044505   -2.9787142 
C    -2.5794000    4.9697308   -0.9854253 
C    -1.6084784    4.1719386   -0.4840379 
C    -1.1290439    3.1460888   -1.2276146 
C    -1.5903753    2.9109477   -2.4766501 
H    -2.9798498    3.5211171   -3.9702828 
H    -1.2211110    4.3636382    0.5101078 
H    -0.2744021    2.4044707   -0.9066212 
H    -3.8465107    5.3650420   -2.6453376 
C    -1.0582784    1.7131239   -3.2503431 
C     0.4868857    1.5104174   -3.1370871 
H    -1.3253456    1.8260962   -4.3238793 
H    -1.5760362    0.8000558   -2.8822432 
C     0.9562467    1.0585904   -1.7429128 
O    -3.0619902    6.0197701   -0.1976590 
H    -3.7814495    6.5741946   -0.6480385 
O     0.5250001    1.7158430   -0.5902938 
N     0.9213230    0.5504218   -4.1656274 
H     1.0001780    2.4886889   -3.3111187 
H     0.3631266   -0.3319629   -4.0830922 
H     0.7501930    0.9506655   -5.1181055 
N     2.1075831    0.2236894   -1.6144397 
C     3.4518061    0.8370712   -1.5145733 
H     1.9579822   -0.8086811   -1.6230898 
C     3.4603035    2.3649670   -1.6669750 
O     3.7849586    2.9444442   -2.8890224 
O     3.1468744    3.2056925   -0.6018674 
H     2.6753212    2.6927279    0.1315014 
C     4.3911752    0.1681026   -2.5453838 
H     3.8483788    0.6419542   -0.4944488 
C     4.6734176   -1.2792695   -2.2052759 
H     5.3611578    0.7138186   -2.5897312 
H     3.9458533    0.2584322   -3.5605819 
C     4.0985395   -2.3687926   -2.7420504 
C     3.1547666   -2.4707525   -3.7138629 
C     2.7282521   -3.7143382   -4.0760942 
C     3.2441424   -4.8257108   -3.4691591 
C     4.1898735   -4.6999059   -2.4954407 
C     4.5964541   -3.4587970   -2.1551436 
H     2.7397103   -1.5919930   -4.1966137 
H     1.9738662   -3.8216518   -4.8516097 
H     2.8985503   -5.8134998   -3.7634259 
H     4.6079693   -5.5708360   -2.0023343 
N     5.5566630   -3.1113854   -1.1676629 
C     5.5437401   -1.6815129   -1.2624012 
H     6.1180011   -3.7335124   -0.5418787 
H     6.1514861   -1.0200927   -0.6487390 
