48
Energy =
C     0.0580475    4.1528686   -7.0547551 
C     0.7127430    3.2610659   -6.2689886 
C     0.5320882    5.4196288   -7.1926415 
C     1.6595036    5.7859943   -6.5423735 
C     2.3191250    4.8991201   -5.7542523 
C     1.8494018    3.6274917   -5.6150252 
H     0.3192765    2.2523019   -6.1683684 
H     2.0250510    6.8007102   -6.6622503 
H     3.2226698    5.2194153   -5.2391784 
H    -0.8463698    3.8506549   -7.5721382 
C     2.5670823    2.6346632   -4.7252967 
C     1.8278591    2.4079564   -3.3759642 
H     3.6095484    2.9785079   -4.5365022 
H     2.6416909    1.6826906   -5.2910704 
C     2.4781750    1.3907778   -2.4272098 
O    -0.1184335    6.3633687   -7.9929345 
H    -0.9545939    6.0136940   -8.4485515 
O     1.9958010    1.3031694   -1.1278758 
N     1.6541780    3.6950930   -2.6806655 
H     0.8200702    1.9753017   -3.5830006 
H     2.5572499    4.2242243   -2.6299521 
H     0.9512185    4.2904630   -3.1775909 
N     3.4649118    0.4196613   -2.8312794 
C     4.7955704    0.7416170   -2.2711087 
H     3.4997403    0.2873151   -3.8631414 
C     5.3420241    2.0214142   -2.8576570 
O     6.4536431    2.7284844   -2.4147122 
O     5.1789624    3.2832611   -2.2808999 
H     4.4891164    3.2721717   -1.5298282 
C     5.7637047   -0.4269013   -2.5465377 
H     4.7392739    0.9005039   -1.1660785 
C     5.3919534   -1.7357801   -1.8673024 
H     6.7798817   -0.1328442   -2.1923948 
H     5.8304324   -0.5996686   -3.6429349 
C     6.0796151   -2.8831943   -1.9817052 
C     7.2055971   -3.1501919   -2.6926573 
C     7.7201089   -4.4126870   -2.6429233 
C     7.1088264   -5.3782321   -1.8914461 
C     5.9796349   -5.0865010   -1.1850868 
C     5.4904477   -3.8304501   -1.2513606 
H     7.6918058   -2.3822263   -3.2875403 
H     8.6215248   -4.6517358   -3.2022256 
H     7.5251337   -6.3818668   -1.8553309 
H     5.4827840   -5.8390272   -0.5822947 
N     4.3398620   -3.3221696   -0.5952148 
C     4.3458741   -1.9601661   -1.0439902 
H     3.6664143   -3.8041663    0.0428602 
H     3.5979634   -1.2265253   -0.7513114 
