48
Energy =
C    -0.1920178   -4.7265357   -0.1211725 
C    -0.0994189   -3.4399249    0.3016883 
C    -0.0629861   -5.0236602   -1.4422801 
C     0.1513695   -4.0291370   -2.3328808 
C     0.2408841   -2.7415520   -1.9168151 
C     0.1173556   -2.4384643   -0.5946587 
H    -0.1901345   -3.2206686    1.3624184 
H     0.2556691   -4.2770537   -3.3832236 
H     0.4246037   -1.9583002   -2.6482829 
H    -0.3622748   -5.5179285    0.6006770 
C     0.2782222   -1.0071405   -0.1282807 
C     1.7556016   -0.5615125   -0.1897186 
H    -0.1151713   -0.8677812    0.9035524 
H    -0.3402521   -0.3527999   -0.7832955 
C     1.8922952    0.9428127   -0.0687629 
O    -0.1413788   -6.3399435   -1.9092997 
H    -0.3189729   -7.0246766   -1.1825926 
O     1.4729909    1.5966047    1.0859260 
N     2.5559207   -1.2461289    0.8397418 
H     2.1529955   -0.8172430   -1.1924964 
H     2.1621659   -1.0373637    1.7891764 
H     2.5084592   -2.2819912    0.6969681 
N     2.4040639    1.7156871   -1.1634267 
C     3.8269892    2.0748554   -0.9348300 
H     1.8168560    2.5841872   -1.1716163 
C     4.2326156    3.3538502   -1.6692308 
O     3.4334151    3.8634376   -2.6854060 
O     5.4188220    4.0190520   -1.3627037 
H     5.9124804    3.5918645   -0.5933685 
C     4.7497262    0.8815739   -1.3163940 
H     3.9939225    2.3220865    0.1428489 
C     4.3919284    0.1955274   -2.6302360 
H     4.7008419    0.1525651   -0.4815498 
H     5.8115940    1.2082994   -1.3716120 
C     4.2727353   -1.1310271   -2.8420234 
C     4.4131203   -2.1746502   -1.9799296 
C     4.1900888   -3.4373500   -2.4436209 
C     3.8450731   -3.6427296   -3.7494869 
C     3.7257778   -2.5864003   -4.6015098 
C     3.9482397   -1.3458335   -4.1189875 
H     4.6827518   -2.0261545   -0.9399031 
H     4.2845713   -4.2855349   -1.7695361 
H     3.6673569   -4.6531368   -4.1101734 
H     3.4564812   -2.7320535   -5.6421734 
N     3.8653918   -0.1250304   -4.8357641 
C     4.1754017    0.8221315   -3.8038697 
H     3.6397046    0.0401834   -5.8439871 
H     4.2273975    1.8966927   -3.9638973 
