48
Energy =
C     0.8931109    1.9674884   -8.6215367 
C     1.2546552    1.9762115   -7.3137735 
C     1.6119898    1.2488716   -9.5246966 
C     2.6889715    0.5427389   -9.1122900 
C     3.0559187    0.5478842   -7.8052791 
C     2.3417154    1.2694844   -6.8984001 
H     0.6672787    2.5538418   -6.6038785 
H     3.2511004   -0.0271117   -9.8446351 
H     3.9224423   -0.0299448   -7.4905419 
H     0.0269032    2.5361015   -8.9423441 
C     2.7393810    1.2599868   -5.4401765 
C     2.2300771   -0.0118287   -4.7121349 
H     2.3630527    2.1786144   -4.9359111 
H     3.8496524    1.3471365   -5.3594577 
C     3.1201597   -0.3938445   -3.5358285 
O     1.2662802    1.2163771  -10.8790745 
H     0.4522888    1.7757613  -11.1103264 
O     4.0781680   -1.3831177   -3.7304217 
N     0.8240158    0.1521001   -4.3072033 
H     2.2992134   -0.8866492   -5.4021858 
H     0.7184518    1.0146541   -3.7204010 
H     0.2284206    0.2809381   -5.1585359 
N     2.7994592    0.0002416   -2.1924649 
C     3.5108949    1.1502305   -1.6012784 
H     2.0404460   -0.5130608   -1.6934228 
C     3.3525818    2.4092600   -2.4440382 
O     4.3600961    2.8065213   -3.3153403 
O     2.1580853    3.1279000   -2.4477436 
H     1.4947457    2.7465772   -1.7895413 
C     4.9894288    0.7892697   -1.3428872 
H     3.0445219    1.3882653   -0.6200403 
C     5.1212009   -0.2769213   -0.2789983 
H     5.5541388    1.6953301   -1.0307562 
H     5.4691822    0.4442130   -2.2853631 
C     5.0797810   -0.0939161    1.0495332 
C     4.9432780    1.0511394    1.7660914 
C     4.9247549    0.9653520    3.1274063 
C     5.0396393   -0.2500262    3.7445497 
C     5.1731586   -1.3870074    3.0035877 
C     5.1904144   -1.2755276    1.6586460 
H     4.8499854    2.0159792    1.2760147 
H     4.8178517    1.8682445    3.7240728 
H     5.0235328   -0.3106001    4.8301102 
H     5.2627434   -2.3594342    3.4761189 
N     5.3088125   -2.3270087    0.7109480 
C     5.2481405   -1.5930965   -0.5205222 
H     5.4116130   -3.3565721    0.8626892 
H     5.2827674   -2.0434660   -1.5103363 
