48
Energy =
C    -2.7703622    2.5196388    0.2647453 
C    -1.9560487    1.9231368   -0.6421470 
C    -2.4330103    3.7248643    0.7973960 
C    -1.2817910    4.3238727    0.4175978 
C    -0.4661975    3.7323526   -0.4908765 
C    -0.7977141    2.5266395   -1.0258987 
H    -2.2338163    0.9582189   -1.0571888 
H    -1.0220953    5.2816511    0.8526790 
H     0.4544140    4.2273721   -0.7867389 
H    -3.6899690    2.0290737    0.5627793 
C     0.1215401    1.8544502   -2.0234399 
C     1.2368912    1.0037426   -1.3649055 
H     0.6009209    2.6176388   -2.6829608 
H    -0.4602208    1.2133944   -2.7194472 
C     2.2351507    1.8482862   -0.5775378 
O    -3.2516651    4.3681470    1.7334395 
H    -4.0868650    3.8459671    1.9728649 
O     2.3251712    1.7503866    0.8124753 
N     0.6644184   -0.0941063   -0.5630349 
H     1.8371591    0.5592515   -2.1913523 
H     0.1984502    0.3052098    0.2851915 
H    -0.0559847   -0.5993584   -1.1265402 
N     3.0219255    2.8279513   -1.2579661 
C     4.4573064    2.5692317   -1.4538997 
H     2.6143817    3.7591011   -1.4885096 
C     5.1004392    3.7316197   -2.1792999 
O     6.0699503    4.4965920   -1.5436675 
O     4.6920034    4.0767994   -3.4550844 
H     3.9650802    3.2299412   -3.7883441 
C     4.6737042    1.2346804   -2.2188237 
H     4.9697696    2.5418368   -0.4680923 
C     4.0334667    1.1685272   -3.5917506 
H     4.2930544    0.3951988   -1.6025699 
H     5.7690071    1.0892051   -2.3465619 
C     4.0879417    0.1034045   -4.3991043 
C     4.7775571   -1.0566737   -4.2416427 
C     4.6582191   -2.0229662   -5.1973288 
C     3.8514816   -1.8182061   -6.2808782 
C     3.1628635   -0.6479448   -6.4069513 
C     3.3053319    0.2939212   -5.4451295 
H     5.4157640   -1.2070356   -3.3781441 
H     5.2077519   -2.9540435   -5.0943584 
H     3.7568809   -2.5871291   -7.0420409 
H     2.5123134   -0.4664447   -7.2541040 
N     2.6408549    1.5472519   -5.3927655 
C     3.1283716    2.2547198   -4.1818033 
H     1.9296518    1.8915119   -6.0773837 
H     3.1572665    3.1759320   -4.7942424 
