48
Energy =
C     1.3067453    5.0095740   -2.0411066 
C     1.0219924    3.8031362   -2.5927308 
C     0.3925587    5.6294047   -1.2501880 
C    -0.7999424    5.0353438   -1.0163138 
C    -1.0830420    3.8230364   -1.5581166 
C    -0.1677849    3.1942105   -2.3473534 
H     1.7576319    3.3206065   -3.2214857 
H    -1.5216275    5.5401290   -0.3832346 
H    -2.0421709    3.3576788   -1.3475851 
H     2.2702950    5.4735834   -2.2292038 
C    -0.4653888    1.8236302   -2.9287588 
C     0.0189609    0.6315554   -2.0575695 
H    -0.0262510    1.7411438   -3.9477667 
H    -1.5634690    1.7236361   -3.0769588 
C     1.5102569    0.3336144   -2.1851640 
O     0.6512772    6.8734922   -0.6665451 
H     1.5769682    7.2403741   -0.8620074 
O     1.8754741   -0.9527031   -2.5588350 
N    -0.4007959    0.7805599   -0.6519021 
H    -0.4700455   -0.2884827   -2.4596474 
H     0.0297539    1.6327333   -0.2232745 
H    -1.4398414    0.8976716   -0.6058959 
N     2.4831146    1.2825897   -1.6958133 
C     3.9427021    1.1597905   -1.9959431 
H     2.3509092    1.3060397   -0.6584555 
C     4.4955621    2.5510603   -2.2975827 
O     5.1960871    3.2324753   -1.3119389 
O     4.2724218    3.1913794   -3.5212687 
H     3.7479317    2.6119141   -4.1562063 
C     4.3305019    0.1295178   -3.0960814 
H     4.4735023    0.8416026   -1.0674207 
C     5.8035034    0.1921702   -3.4545694 
H     3.6970684    0.2555975   -3.9994214 
H     4.1427653   -0.9000465   -2.7263564 
C     6.8179077   -0.3653724   -2.7722634 
C     6.7970271   -1.1243541   -1.6458986 
C     7.9840442   -1.5681259   -1.1413859 
C     9.1606343   -1.2489083   -1.7608960 
C     9.1573093   -0.4834830   -2.8890290 
C     7.9700886   -0.0587245   -3.3700813 
H     5.8654612   -1.3769171   -1.1484218 
H     7.9947812   -2.1763987   -0.2400481 
H    10.1027781   -1.6035383   -1.3504786 
H    10.0817334   -0.2163996   -3.3896012 
N     7.7479877    0.7512870   -4.5151322 
C     6.3191412    0.8737717   -4.4939323 
H     8.4421291    1.1413285   -5.1932609 
H     5.7451744    1.4757686   -5.1959617 
