48
Energy =
C     2.1181863    3.3985796    2.1271709 
C     2.8104826    2.3463774    1.6233054 
C     1.4898609    3.2910618    3.3277100 
C     1.5553295    2.1276787    4.0142217 
C     2.2439147    1.0707957    3.5134227 
C     2.8836409    1.1759226    2.3160435 
H     3.2945549    2.4454521    0.6563449 
H     1.0449689    2.0528714    4.9682954 
H     2.2769366    0.1416890    4.0763678 
H     2.0644338    4.3236955    1.5638982 
C     3.6298101   -0.0135504    1.7472839 
C     2.7025071   -0.9215867    0.9044676 
H     4.0663774   -0.6002502    2.5856268 
H     4.4969359    0.3284816    1.1404871 
C     2.3476954   -0.2943243   -0.4391664 
O     0.7705316    4.3572060    3.8780069 
H     0.7530974    5.1882709    3.2965622 
O     1.2890523    0.6062012   -0.5023502 
N     3.3039250   -2.2581082    0.7527227 
H     1.7244354   -1.0357937    1.4303947 
H     4.2875044   -2.1766671    0.4051495 
H     3.3449115   -2.7307967    1.6861921 
N     2.9371280   -0.7408054   -1.6731761 
C     4.2753069   -0.1485827   -1.9059797 
H     2.2738745   -0.4615424   -2.4306518 
C     4.3125099    1.3820356   -1.8186175 
O     5.2315196    1.9843494   -0.9683331 
O     3.4794237    2.2014294   -2.5800769 
H     2.8055766    1.6706790   -3.1080855 
C     4.8081574   -0.6602541   -3.2610553 
H     4.9657737   -0.5210114   -1.1166594 
C     6.2890898   -0.3895611   -3.4218989 
H     4.2369329   -0.2133359   -4.1031100 
H     4.6405781   -1.7597180   -3.3217103 
C     6.8636833    0.6848999   -3.9878021 
C     6.2981381    1.7702089   -4.5766015 
C     7.1183872    2.7400125   -5.0731875 
C     8.4764122    2.6125668   -4.9769225 
C     9.0225062    1.5145390   -4.3815960 
C     8.1900713    0.5688012   -3.8976084 
H     5.2210051    1.8807422   -4.6490002 
H     6.6884124    3.6220473   -5.5417294 
H     9.1228381    3.3923553   -5.3715300 
H    10.0973119    1.4002052   -4.2921353 
N     8.5521778   -0.6361200   -3.2378016 
C     7.2619899   -1.1932860   -2.9572080 
H     9.5030628   -1.0128959   -3.0207578 
H     7.0987969   -2.1290390   -2.4275355 
