48
Energy =
C     2.2141729    5.4945377    3.3945969 
C     2.3328798    4.1795612    3.0804520 
C     3.0371653    6.4122353    2.8198019 
C     3.9741795    6.0066232    1.9330331 
C     4.0974026    4.6936636    1.6152768 
C     3.2780130    3.7702070    2.1898368 
H     1.6642398    3.4595305    3.5450645 
H     4.6247900    6.7463792    1.4794287 
H     4.8581124    4.3902542    0.8991623 
H     1.4585360    5.8104732    4.1057166 
C     3.4042274    2.3082008    1.8217703 
C     2.7526060    1.9939925    0.4506444 
H     2.9561031    1.6619207    2.6093627 
H     4.4878793    2.0530745    1.7988103 
C     3.1197163    0.5920662   -0.0319709 
O     2.9397464    7.7746097    3.1217045 
H     2.2154067    7.9967368    3.7956190 
O     2.1458771   -0.3992372   -0.0721690 
N     1.2896956    2.1704626    0.5257278 
H     3.1482352    2.6864098   -0.3252791 
H     0.8913326    1.5696703    1.2868432 
H     1.0543668    3.1668774    0.7454641 
N     4.4917052    0.1843178   -0.1667110 
C     5.3373623    0.7488240   -1.2390032 
H     4.8756770   -0.4671782    0.5533347 
C     5.7264940    2.1954843   -0.9541467 
O     5.1424571    3.2322817   -1.6722674 
O     6.6060431    2.5171373    0.0777310 
H     6.9686964    1.6907860    0.5312965 
C     4.6818513    0.5648233   -2.6286393 
H     6.2995948    0.1900796   -1.2502057 
C     4.5385075   -0.8970724   -3.0011353 
H     5.3193142    1.0516791   -3.4006063 
H     3.7080349    1.0941865   -2.6708456 
C     3.4012298   -1.5955946   -3.1687703 
C     2.1048626   -1.2056294   -3.0501690 
C     1.1251244   -2.1252834   -3.2840263 
C     1.4489059   -3.4056993   -3.6361694 
C     2.7551517   -3.7749881   -3.7551369 
C     3.7067350   -2.8488165   -3.5141789 
H     1.8367293   -0.1946834   -2.7636099 
H     0.0810726   -1.8385126   -3.1834794 
H     0.6619533   -4.1327026   -3.8194645 
H     3.0297101   -4.7861415   -4.0349419 
N     5.1131300   -3.0282379   -3.5931111 
C     5.5760143   -1.7169652   -3.2498225 
H     5.6589027   -3.8856252   -3.8382685 
H     6.6236794   -1.4286813   -3.2095875 
