48
Energy =
C    -1.5834636    3.1722090    2.0623408 
C    -1.7432511    2.6554049    0.8178108 
C    -0.3737700    3.1047749    2.6800942 
C     0.6692447    2.5225517    2.0457825 
C     0.5150295    2.0042331    0.8015110 
C    -0.6959141    2.0619016    0.1817286 
H    -2.7129012    2.7231266    0.3316282 
H     1.6304968    2.4805352    2.5461825 
H     1.3682062    1.5502644    0.3043397 
H    -2.4243474    3.6422239    2.5606955 
C    -0.8652058    1.5111587   -1.2180593 
C    -0.7839180    2.6224642   -2.2879135 
H    -1.8482161    0.9965201   -1.2948572 
H    -0.0936212    0.7358558   -1.4246338 
C     0.5365353    3.3765743   -2.2346710 
O    -0.1753135    3.6247207    3.9632077 
H    -0.9988100    4.0595213    4.3651739 
O     0.5353151    4.7167580   -1.8480777 
N    -1.0170183    2.0419922   -3.6211323 
H    -1.5743028    3.3841274   -2.0855562 
H    -0.3726536    1.2326465   -3.7883174 
H    -1.9970700    1.6762287   -3.6800873 
N     1.7776515    2.6660982   -2.4232034 
C     2.9619029    3.4263874   -1.9534698 
H     1.8424117    2.4868976   -3.4525755 
C     3.3706534    4.5756537   -2.8874119 
O     3.1277378    4.4866686   -4.2543204 
O     4.1016662    5.6671545   -2.4108495 
H     4.1793910    5.6602011   -1.4043760 
C     4.1251069    2.4412032   -1.7101831 
H     2.7342553    3.8831694   -0.9620619 
C     4.5480787    1.7033741   -2.9642159 
H     3.8077176    1.6985389   -0.9449190 
H     4.9954687    2.9785651   -1.2738266 
C     5.4716158    2.0867964   -3.8615558 
C     6.2659762    3.1884807   -3.8821032 
C     7.1278478    3.3470410   -4.9271768 
C     7.1848108    2.4126736   -5.9238085 
C     6.3786621    1.3142963   -5.8824600 
C     5.5334802    1.1800319   -4.8388912 
H     6.2188277    3.9383567   -3.0981304 
H     7.7675461    4.2253720   -4.9709343 
H     7.8715203    2.5489419   -6.7554465 
H     6.4083273    0.5663518   -6.6675236 
N     4.6125193    0.1221924   -4.6120224 
C     4.0128639    0.5415680   -3.3794595 
H     4.4290554   -0.7305321   -5.1891938 
H     3.2205129    0.0027734   -2.8649097 
