48
Energy =
C    -1.8926655   -0.9301612   -2.3284410 
C    -0.5414806   -0.8614812   -2.2154845 
C    -2.6368549   -1.4646001   -1.3243538 
C    -2.0240823   -1.9243440   -0.2113357 
C    -0.6746376   -1.8564012   -0.0909750 
C     0.0779195   -1.3251897   -1.0948481 
H     0.0311963   -0.4243561   -3.0270786 
H    -2.6298579   -2.3444455    0.5831277 
H    -0.2049379   -2.2272778    0.8155360 
H    -2.3772001   -0.5526866   -3.2224970 
C     1.5849541   -1.2412324   -0.9572913 
C     2.0826274    0.1412454   -0.4614403 
H     2.0568466   -1.4960838   -1.9274672 
H     1.9407195   -2.0237876   -0.2509162 
C     1.8400698    1.2624315   -1.4772303 
O    -4.0297027   -1.5544569   -1.4110738 
H    -4.4128190   -1.1622057   -2.2641111 
O     0.9030699    2.2541432   -1.2142992 
N     1.5123726    0.4570217    0.8593850 
H     3.1834895    0.0872957   -0.3297715 
H     0.4876096    0.6623468    0.7671731 
H     1.6129005   -0.3579097    1.5075590 
N     2.5298536    1.3062164   -2.7408688 
C     3.9769176    1.6094038   -2.6266262 
H     2.3109076    0.4579870   -3.3002723 
C     4.3721712    2.7102127   -3.6093732 
O     3.8162519    2.7340632   -4.8832783 
O     5.3802011    3.6292036   -3.3065565 
H     5.6884249    3.5621107   -2.3484990 
C     4.8508962    0.3341056   -2.8047860 
H     4.1991342    2.0238685   -1.6154508 
C     4.8725458   -0.2178397   -4.2204443 
H     4.5038572   -0.4614563   -2.1142115 
H     5.8939501    0.5632451   -2.4925105 
C     5.6894509    0.1502619   -5.2242600 
C     6.6810867    1.0788516   -5.2498409 
C     7.3715371    1.2604886   -6.4118611 
C     7.0713554    0.5146687   -7.5175862 
C     6.0784739   -0.4176791   -7.4677095 
C     5.4065859   -0.5757687   -6.3079406 
H     6.9216038    1.6784555   -4.3776461 
H     8.1595541    2.0086157   -6.4600558 
H     7.6237074    0.6688576   -8.4413501 
H     5.8276609   -1.0177913   -8.3357734 
N     4.3547316   -1.4935915   -6.0465863 
C     4.0700935   -1.1993962   -4.6727063 
H     3.9215728   -2.1978516   -6.6881264 
H     3.3230206   -1.7192068   -4.0795427 
