48
Energy =
C     1.3983336    3.8755329   -5.4198978 
C     1.8581737    3.9821189   -4.1477598 
C     0.2868825    4.5545086   -5.8030510 
C    -0.3629315    5.3327083   -4.9090703 
C     0.0890689    5.4421044   -3.6338339 
C     1.2103441    4.7737946   -3.2413519 
H     2.7328277    3.4062640   -3.8623941 
H    -1.2537346    5.8647133   -5.2284301 
H    -0.4570661    6.0687718   -2.9328229 
H     1.9180475    3.2381610   -6.1276078 
C     1.6959046    4.8976947   -1.8044934 
C     1.2528298    3.7061125   -0.9195259 
H     1.2931988    5.8341623   -1.3605942 
H     2.8008188    5.0372716   -1.7622698 
C     1.8312624    2.3676518   -1.3844112 
O    -0.2100418    4.4689714   -7.1058313 
H     0.3230996    3.8589240   -7.7164435 
O     1.1193602    1.7008707   -2.3770820 
N     1.5484452    3.9899890    0.4956606 
H     0.1477912    3.5861655   -1.0192012 
H     2.5695084    4.1904703    0.6216518 
H     1.0229477    4.8381329    0.8132918 
N     2.7108568    1.5979012   -0.5427964 
C     4.1580227    1.7416298   -0.8554589 
H     2.4172249    0.5996465   -0.6288020 
C     4.5931118    3.1714831   -1.1754784 
O     4.5023935    3.6670695   -2.4646258 
O     4.9609251    4.0712443   -0.1806154 
H     5.0263970    3.6366870    0.7282025 
C     4.6905604    0.6659101   -1.8474486 
H     4.6898409    1.5078777    0.0917360 
C     4.1769841    0.7470857   -3.2736870 
H     4.4564909   -0.3430293   -1.4436307 
H     5.8004489    0.7198728   -1.8611655 
C     4.7813836    1.3277935   -4.3273329 
C     5.9388902    2.0353438   -4.3919592 
C     6.3406897    2.5176631   -5.6027882 
C     5.5944644    2.2799651   -6.7231460 
C     4.4400150    1.5612032   -6.6383705 
C     4.0603751    1.1017254   -5.4277622 
H     6.5209212    2.2462724   -3.4995618 
H     7.2560171    3.0998938   -5.6732688 
H     5.9238452    2.6656048   -7.6845770 
H     3.8399823    1.3570536   -7.5185346 
N     2.9078073    0.3304872   -5.1312560 
C     3.0699189    0.1286893   -3.7212401 
H     2.1435986   -0.0031974   -5.7619267 
H     2.3955877   -0.4628404   -3.1068110 
