48
Energy =
C    -1.4201065   -3.9389215   -3.9192424 
C    -1.3817920   -2.6145606   -4.2129075 
C    -1.2073412   -4.3627272   -2.6452576 
C    -0.9652138   -3.4567120   -1.6718854 
C    -0.9284491   -2.1315754   -1.9596178 
C    -1.1223407   -1.6989620   -3.2366638 
H    -1.5569737   -2.2930833   -5.2360689 
H    -0.8017205   -3.8052884   -0.6579885 
H    -0.7399977   -1.4217139   -1.1587220 
H    -1.6216248   -4.6579462   -4.7061489 
C    -1.0746137   -0.2170083   -3.5705513 
C     0.3024243    0.3068629   -4.0685909 
H    -1.3902649    0.3768235   -2.6837804 
H    -1.8353744   -0.0037057   -4.3531854 
C     1.3281873    0.5181510   -2.9621416 
O    -1.2333451   -5.7200916   -2.3103217 
H    -1.4334601   -6.3341647   -3.0922838 
O     1.3419499   -0.2839358   -1.8266054 
N     0.8424144   -0.5205999   -5.1617886 
H     0.1225811    1.3310361   -4.4723624 
H     1.0269169   -1.4927067   -4.8201356 
H     0.1393757   -0.5819913   -5.9352374 
N     2.2324942    1.6319140   -3.0345293 
C     3.6297050    1.2096170   -2.7696914 
H     1.9267833    2.2626018   -2.2563558 
C     4.5525919    2.4127538   -2.6021768 
O     5.4752887    2.4231925   -1.5641342 
O     4.5443756    3.4762058   -3.5046872 
H     3.8395301    3.3479921   -4.2171124 
C     4.1433590    0.2869432   -3.9135331 
H     3.6776135    0.6864000   -1.7807157 
C     4.6952853   -1.0083905   -3.3630982 
H     4.9085360    0.7967631   -4.5394894 
H     3.3310208    0.0522775   -4.6352309 
C     5.9813022   -1.2952875   -3.1056222 
C     7.0972519   -0.5428130   -3.2886872 
C     8.3007517   -1.0689969   -2.9215885 
C     8.3705968   -2.3217005   -2.3778092 
C     7.2361257   -3.0547057   -2.1933884 
C     6.0576170   -2.5144087   -2.5679035 
H     7.0465096    0.4607845   -3.7012492 
H     9.2081320   -0.4840467   -3.0532623 
H     9.3334944   -2.7305265   -2.0819209 
H     7.2728167   -4.0443452   -1.7508700 
N     4.7670025   -3.0932860   -2.4319017 
C     3.9390872   -2.0435433   -2.9555821 
H     4.5015485   -4.0328004   -2.0547013 
H     2.8474832   -2.0485122   -2.9511885 
