48
 energy: -9.280822212231 gnorm: 0.000716578018 xtb: 6.6.0 (2ccbbd7)
C            0.42389385877352       -1.14504715526235        4.66979534690672
C            1.03280595435588       -1.77460416226363        3.60975403233369
C           -0.45037063591506       -0.07862421348699        4.45676931006346
C           -0.68389420763190        0.33118802654358        3.14457204040057
C           -0.07075109648296       -0.30463767066109        2.09264934619461
C            0.79123749748221       -1.36977082205075        2.30450211281878
H            1.70792338428357       -2.59376927079543        3.78827608849454
H           -1.34983652516742        1.15918447149835        2.97867378807691
H           -0.23931219793158        0.02981846648708        1.08379897990084
H            0.61756966230804       -1.46911103236737        5.67652283541352
C            1.47114242224761       -2.04707647486395        1.15341604661312
C            2.53767692614458       -1.17349509143388        0.47008546967782
H            0.71847623613915       -2.33587288417375        0.41221226982061
H            1.92475604160974       -2.97946800556973        1.50502887764857
C            1.90862506025931       -0.12726113009132       -0.43217865793321
O           -1.07931531145514        0.57393675504210        5.49929774404869
H           -0.80848238307757        0.18087547290501        6.35681241892314
O            0.72144484841747       -0.19316188917460       -0.68783008355545
N            3.41966659048574       -0.55056367721179        1.44596085397481
H            3.16000093728638       -1.81503916856309       -0.17225797184493
H            2.91621378101245        0.16767819231958        1.94784765549116
H            3.74516276479201       -1.22784241436396        2.12311349858691
N            2.68357282542647        0.88202147964425       -0.96522911901760
C            4.14961663503464        0.90604431641317       -0.97557275463530
H            2.23750262368308        1.56283662491117       -1.57496071914122
C            4.65793621412694        2.32347288120754       -0.80518328408938
O            5.40182747684790        2.54233581481793        0.12707194305625
O            4.26002179187592        3.24129030799839       -1.71898556270077
H            3.65773088796380        2.84712251847355       -2.38596947683821
C            4.73148317242553        0.25651565339263       -2.23174129164797
H            4.49356196008468        0.34638042287195       -0.09662507661817
C            4.46287693154871       -1.20725708686677       -2.31019213625523
H            5.81230594500037        0.42915002881551       -2.26515304252706
H            4.32145173505980        0.74893717902595       -3.11736815570029
C            3.27538394999545       -1.83175685512207       -2.79615325337802
C            2.09106333518068       -1.32813415093915       -3.36074336058959
C            1.09344139928077       -2.20479469793014       -3.68460683187974
C            1.23988110486524       -3.58449279983835       -3.46819838578912
C            2.38325483943455       -4.09789783869120       -2.92025935449450
C            3.41461081799398       -3.21568818508145       -2.57508099263885
H            1.97033566223827       -0.26826053108237       -3.49639141263639
H            0.17280591313461       -1.83034940830665       -4.10056280139085
H            0.43338687451918       -4.24774111416474       -3.73368728645261
H            2.50091880234682       -5.15197217840828       -2.74387686828288
N            4.64491291567995       -3.41922363854926       -1.97564694621338
C            5.26623572763811       -2.20547237166951       -1.81592041004388
H            5.01140896562721       -4.32948350195215       -1.69197163124056
H            6.22775715470484       -2.06090948492602       -1.35020580291693
