48
Energy =
C    -0.2186465   -3.5352655    1.8608118 
C    -0.5553153   -3.0114704    0.6519510 
C     0.9005548   -3.1044287    2.5078539 
C     1.6765924   -2.1533242    1.9395088 
C     1.3364865   -1.6367694    0.7340668 
C     0.2192008   -2.0456327    0.0872333 
H    -1.4448389   -3.3728244    0.1428265 
H     2.5664660   -1.8133082    2.4567726 
H     1.9342493   -0.8021550    0.1559984 
H    -0.8437092   -4.3016969    2.3061584 
C    -0.1027658   -1.4733183   -1.2876947 
C     0.1842402    0.0541749   -1.4205291 
H    -1.1762951   -1.6556149   -1.5132313 
H     0.4852833   -2.0265386   -2.0525266 
C     1.6894167    0.3907947   -1.4358980 
O     1.2745530   -3.6228092    3.7516271 
H     0.6404082   -4.3283996    4.1097292 
O     2.5052801   -0.0209836   -0.3732422 
N    -0.4995063    0.5797347   -2.6140988 
H    -0.2223142    0.5772582   -0.5225566 
H    -0.1552964    0.0803171   -3.4696726 
H    -1.5322125    0.4202892   -2.5436928 
N     2.2384076    1.2244592   -2.4754603 
C     3.7014269    1.4365456   -2.3539153 
H     1.7303963    2.1369337   -2.4003550 
C     4.1525077    2.6793021   -3.1200706 
O     3.6198411    2.9506264   -4.3737096 
O     5.1462231    3.5260020   -2.6250509 
H     5.5377086    3.2027691   -1.7537863 
C     4.4258567    0.1802981   -2.8882743 
H     3.9751856    1.6161951   -1.2877770 
C     5.8991865    0.1955414   -2.5509923 
H     4.2649023    0.0875058   -3.9853757 
H     3.9734102   -0.7316004   -2.4397304 
C     6.9026494    0.6645706   -3.3102070 
C     6.8764599    1.2074378   -4.5547363 
C     8.0528924    1.6232707   -5.1049357 
C     9.2245259    1.4927485   -4.4119822 
C     9.2265269    0.9477506   -3.1624064 
C     8.0499494    0.5432745   -2.6394161 
H     5.9471020    1.3252450   -5.1051780 
H     8.0562407    2.0680631   -6.0974379 
H    10.1570001    1.8310077   -4.8570874 
H    10.1464037    0.8435822   -2.5969706 
N     7.8321025   -0.0286328   -1.3568153 
C     6.4112932   -0.2178175   -1.3786131 
H     8.5222525   -0.2473429   -0.6016949 
H     5.8289194   -0.6243774   -0.5532056 
