48
Energy =
C    -0.9518697    5.3438386   -5.2703245 
C    -0.6204460    5.0254052   -3.9929231 
C    -0.0382034    5.2065282   -6.2688381 
C     1.2030541    4.7540987   -5.9810575 
C     1.5396938    4.4355073   -4.7072938 
C     0.6293225    4.5701436   -3.7033016 
H    -1.3634232    5.1339411   -3.2066910 
H     1.9253671    4.6476704   -6.7826413 
H     2.5423937    4.0681812   -4.5013529 
H    -1.9501933    5.7054728   -5.4920424 
C     0.9987117    4.1821357   -2.2886373 
C     0.9898622    2.6477660   -2.0915360 
H     0.3286518    4.6647056   -1.5436794 
H     2.0198649    4.5771401   -2.0657522 
C     1.7379696    2.2537450   -0.8311686 
O    -0.3497566    5.5192971   -7.5960260 
H    -1.2945327    5.8634892   -7.7284488 
O     1.5705578    3.0133649    0.3203198 
N    -0.3850363    2.1246959   -2.0663626 
H     1.5445193    2.1812774   -2.9261434 
H    -0.9133762    2.5734996   -1.2791296 
H    -0.8751624    2.3675542   -2.9583210 
N     2.3758971    0.9712099   -0.7100581 
C     3.6157897    0.7983839   -1.5188872 
H     1.6490609    0.2396090   -0.8759506 
C     4.4314373    2.0911190   -1.7039809 
O     4.0283066    3.0515321   -2.6231167 
O     5.5784375    2.3461115   -0.9544889 
H     5.6299467    1.7729931   -0.1262471 
C     3.3717274   -0.0651934   -2.8113711 
H     4.2804672    0.1686593   -0.8890690 
C     3.5730476    0.6271831   -4.1488000 
H     2.3572851   -0.5178240   -2.7996282 
H     4.0586354   -0.9411645   -2.7969006 
C     4.7428948    0.9701088   -4.7150142 
C     6.0107305    0.8305465   -4.2483331 
C     7.0408673    1.2621944   -5.0307720 
C     6.7930664    1.8118158   -6.2581455 
C     5.5128031    1.9331206   -6.7105198 
C     4.5102202    1.5048936   -5.9153169 
H     6.2107555    0.4009321   -3.2715018 
H     8.0637944    1.1747774   -4.6727051 
H     7.6199090    2.1552570   -6.8745218 
H     5.2988716    2.3622502   -7.6832422 
N     3.1201825    1.5181086   -6.2066014 
C     2.5871414    0.9241437   -5.0171564 
H     2.6217989    1.8680190   -7.0565394 
H     1.5312751    0.7182139   -4.8610145 
