48
Energy =
C     6.4066874   -3.0244280    0.6494942 
C     5.6680457   -2.0017013   -0.2063164 
C     5.7589277   -3.9280369    1.4250414 
C     4.4283480   -4.1245751    1.2951840 
C     3.6445149   -3.5757593    0.1437954 
C     4.2636146   -2.1943490   -0.1108501 
H     6.0480478   -0.9597048   -0.2664782 
H     3.9494372   -4.8192331    1.9783109 
H     2.5991438   -3.5074505    0.4190589 
H     7.4819820   -2.9223509    0.7367694 
C     3.2684380   -0.9834427   -0.0142325 
C     3.7018844    0.4486256   -0.4733903 
H     2.9488814   -0.9336699    1.0477773 
H     2.3394518   -1.2866776   -0.5396306 
C     2.5942904    1.1434769   -1.2776745 
O     6.4474409   -4.6831459    2.3775947 
H     7.4378079   -4.4743847    2.4349507 
O     2.1649715    2.4190113   -0.9260822 
N     4.1146235    1.2442615    0.6946040 
H     4.5575931    0.4319783   -1.1658683 
H     3.2893874    1.4358056    1.3123771 
H     4.8199273    0.7142403    1.2597365 
N     1.8399474    0.4169792   -2.2694751 
C     2.5324919    0.3493894   -3.5851913 
H     0.9116555    0.8988616   -2.3494535 
C     1.8578448    1.2277901   -4.6485823 
O     1.2559482    0.6504260   -5.7611913 
O     1.8246003    2.6146024   -4.5176439 
H     2.2463671    2.9236186   -3.6524491 
C     2.6035107   -1.1399876   -4.0236854 
H     3.5741791    0.7422862   -3.5299070 
C     3.3374663   -1.9965565   -3.0114127 
H     3.1244986   -1.2246196   -5.0041855 
H     1.5670973   -1.5091258   -4.1777741 
C     2.9167427   -3.1415541   -2.4364004 
C     1.8283267   -3.8922915   -2.6869759 
C     1.7055263   -5.0913072   -2.0724900 
C     2.6604821   -5.5543507   -1.2237103 
C     3.9181929   -4.7441852   -0.8910813 
C     3.9801437   -3.5774441   -1.4630653 
H     1.0721932   -3.5720476   -3.3959829 
H     0.8315919   -5.7065933   -2.2764915 
H     2.5273317   -6.5218915   -0.7461237 
H     4.8994538   -5.2730860   -0.9197388 
N     4.9308533   -2.5165503   -1.4110607 
C     4.5464667   -1.6755087   -2.5135276 
H     5.7661926   -3.0421232   -1.7626387 
H     5.1585766   -0.8562523   -2.8842854 
