48
 energy: -9.211552017209 gnorm: 0.000256839399 xtb: 6.6.0 (2ccbbd7)
C            3.39455121312077        4.85064057350636        3.11913590299094
C            2.89474380248151        4.01092869429000        2.15339254753198
C            2.58700136308964        5.27519539823713        4.17509477190683
C            1.26779577199228        4.82425965855279        4.22205653473751
C            0.77504739805455        3.98562390250167        3.25098656304423
C            1.57868098021173        3.57392048168001        2.19886875042512
H            3.52907730390498        3.65777376266264        1.35691261502794
H            0.64789036127310        5.14816138191759        5.03888072754302
H           -0.24251434257680        3.63801278004692        3.30150696965423
H            4.41640753296614        5.18203609292535        3.07332988831930
C            1.06458995941617        2.62983595296928        1.15950577208056
C            1.21776597112013        1.15496076091247        1.55055370764176
H            1.60077134917668        2.80752977685827        0.22246299160137
H            0.01505857512655        2.84975207240731        0.93777402303300
C            0.81453417808317        0.26198887837062        0.39220589576943
O            3.05686078676433        6.11562598046436        5.16595947124374
H            3.99532586654751        6.34600823631025        4.99519579944327
O           -0.34087281978740       -0.12002006852862        0.37726495087378
N            2.53915160599279        0.84649001343531        2.08436079984696
H            0.50066442452322        0.93067165504297        2.35808806812804
H            3.21123989959707        1.26719799616526        1.44780954561488
H            2.67829591429005        1.29840414519455        2.97848355921235
N            1.66485669913015       -0.09185628585634       -0.63739159996408
C            3.10565550938050        0.17850608516974       -0.75715963092359
H            1.30286785997136       -0.71547475281176       -1.35541712792396
C            3.39651104538222        1.66542478412097       -0.85513104174764
O            4.10411425955081        2.13895965864228        0.01085781728852
O            2.87358880344194        2.38631865637753       -1.87335476427608
H            2.16541942871341        1.94414823197050       -2.62043730699840
C            3.71032645031216       -0.52952849659832       -1.96977669131998
H            3.57809996126767       -0.21295026762143        0.15444416352527
C            3.14007420418912        0.01319664590202       -3.22272557744481
H            3.52376344562423       -1.60648092050095       -1.91406547311391
H            4.79646691764997       -0.39148008477701       -1.97794747413565
C            3.57190172695011       -0.15799399108297       -4.52253556653236
C            4.62543707641806       -0.93616140518632       -5.06589463323854
C            4.78985517281918       -0.96605711987508       -6.42350352337363
C            3.94093991437581       -0.24702346215689       -7.27831217099395
C            2.91266162152431        0.52798624677739       -6.78632056073376
C            2.72025117853173        0.59761019840267       -5.41074239745174
H            5.26888965486854       -1.49529271219926       -4.41047604018590
H            5.58446390120477       -1.55717533923633       -6.84760358167201
H            4.09874550326277       -0.30063302449981       -8.34258402406038
H            2.26677973075836        1.08390923181877       -7.44185522211160
N            1.78172891935708        1.28601571023798       -4.66378199777824
C            1.95893084802450        0.91349532557772       -3.27150618421540
H            0.82429294718419        1.46646523504739       -4.97709227639498
H            1.41109906060339        1.61497610624357       -2.41140932119078
