48
Energy =
C     2.0391301    1.6895823   -6.2129455 
C     1.3655812    2.0296984   -5.0852071 
C     1.8251050    0.4825551   -6.7983953 
C     0.9258365   -0.3709407   -6.2598294 
C     0.2423222   -0.0333020   -5.1371814 
C     0.4727163    1.1635576   -4.5265171 
H     1.5508772    3.0010076   -4.6301194 
H     0.7555791   -1.3275081   -6.7429822 
H    -0.4872080   -0.7322000   -4.7401834 
H     2.7504429    2.3860316   -6.6446929 
C    -0.2987557    1.5711308   -3.2836385 
C    -0.3195303    0.5064467   -2.1592991 
H    -1.3435512    1.8011008   -3.5849131 
H     0.1246952    2.5097295   -2.8571622 
C     1.0715710    0.0377543   -1.7652532 
O     2.5126500    0.0967285   -7.9525995 
H     3.1678862    0.7901339   -8.2973403 
O     1.2996921   -1.3297443   -1.6464170 
N    -1.0495874    1.0424730   -0.9963394 
H    -0.8501770   -0.4090147   -2.5079381 
H    -0.5993010    1.9274581   -0.6597318 
H    -2.0343617    1.2733430   -1.2679750 
N     1.9655247    0.9514373   -1.1131542 
C     3.3995649    0.9335921   -1.5217601 
H     1.8804247    0.7228799   -0.0959488 
C     3.8626951    2.3708444   -1.7472471 
O     3.1238062    3.2029380   -2.5836585 
O     5.0524665    2.8600984   -1.2060624 
H     5.5554785    2.1597988   -0.6817114 
C     3.7198899    0.0602558   -2.7701398 
H     3.9951968    0.5205433   -0.6755412 
C     5.2052553    0.0208599   -3.0678670 
H     3.1518385    0.4141448   -3.6529599 
H     3.4054502   -0.9900027   -2.5962441 
C     5.8960757    0.8259862   -3.8928185 
C     5.4697819    1.8546772   -4.6691578 
C     6.3887306    2.5253022   -5.4210595 
C     7.7065343    2.1624329   -5.3865131 
C     8.1135683    1.1289354   -4.5963430 
C     7.1848777    0.4816433   -3.8614566 
H     4.4301515    2.1575351   -4.6858773 
H     6.0730957    3.3591749   -6.0432229 
H     8.4339478    2.7049788   -5.9851969 
H     9.1560683    0.8326526   -4.5518064 
N     7.3995837   -0.6039089   -2.9711927 
C     6.0688123   -0.8371199   -2.4956327 
H     8.2889725   -1.0975932   -2.7285708 
H     5.8027544   -1.6029807   -1.7702429 
