48
Energy =
C    -2.9393843   -1.7400141   -1.3241331 
C    -1.7656973   -2.3914143   -1.1060926 
C    -2.9964590   -0.3808093   -1.2385750 
C    -1.8778974    0.3170114   -0.9336746 
C    -0.7137010   -0.3398745   -0.7139715 
C    -0.6400828   -1.6863017   -0.8110427 
H    -1.7372452   -3.4758769   -1.1670886 
H    -1.9236933    1.3984633   -0.8701359 
H     0.3216222    0.1589201   -0.4622272 
H    -3.8318135   -2.3081368   -1.5627791 
C     0.6804593   -2.3788530   -0.5061239 
C     1.9292555   -1.6735572   -1.1217411 
H     0.6403438   -3.4226428   -0.8873299 
H     0.8000359   -2.4438609    0.5972311 
C     2.2694504   -0.3143926   -0.4693369 
O    -4.1883217    0.3179090   -1.4569844 
H    -4.9770038   -0.2764737   -1.6857546 
O     1.2815872    0.6398309   -0.2251020 
N     3.0750576   -2.6017548   -1.0620567 
H     1.7098076   -1.4330166   -2.1903442 
H     3.2050563   -2.9410767   -0.0781448 
H     2.8764924   -3.4427905   -1.6554380 
N     3.6291324    0.0957732   -0.2963986 
C     4.3396274    0.6928203   -1.4412862 
H     4.0641085   -0.0188802    0.6440974 
C     3.4710920    1.6739915   -2.2382309 
O     2.9138877    1.2866392   -3.4542298 
O     3.2297030    2.9670148   -1.7767230 
H     3.4841159    3.0631481   -0.8042351 
C     4.9323579   -0.4379114   -2.3109574 
H     5.1809480    1.2978389   -1.0354013 
C     6.0295068    0.0689603   -3.2198923 
H     4.1293347   -0.9186072   -2.9127952 
H     5.3204461   -1.2523349   -1.6599517 
C     7.3193850    0.2485099   -2.8957945 
C     7.9639097    0.0085100   -1.7248819 
C     9.2966431    0.2894795   -1.6502812 
C     9.9562271    0.8029402   -2.7328050 
C     9.2866936    1.0397213   -3.8966977 
C     7.9694495    0.7509077   -3.9464444 
H     7.4416452   -0.3929611   -0.8619240 
H     9.8374139    0.1070474   -0.7246530 
H    11.0179347    1.0267729   -2.6645406 
H     9.7932886    1.4521740   -4.7626938 
N     7.0900380    0.9350653   -5.0463917 
C     5.8505506    0.4762760   -4.4891391 
H     7.2935891    1.3011568   -6.0047272 
H     4.8951643    0.4883765   -5.0138903 
