48
 energy: -9.054301017690 gnorm: 0.000683356838 xtb: 6.6.0 (2ccbbd7)
C           -2.80649621910267        1.51478775383056        2.32833766397531
C           -1.55107283909512        1.49808217265562        1.76768076611298
C           -3.91694283635832        1.89200256440203        1.57221319874887
C           -3.71799804856788        2.24694752778386        0.23817071856389
C           -2.45997086157037        2.22737535936921       -0.31495155155240
C           -1.35712456167452        1.85829823255416        0.44115070608375
H           -0.70216869255649        1.20363807681906        2.36091868576609
H           -4.57379942586557        2.53502657392907       -0.34585215669922
H           -2.32152899962607        2.49851844543044       -1.34739129116091
H           -2.94475954654764        1.23684773432756        3.35808318966607
C            0.00474127562849        1.80565090484777       -0.17856291385910
C            0.19535294850311        0.57767537424378       -1.07786412005536
H            0.75915178500198        1.79703991645382        0.61259777795796
H            0.18679171797513        2.72504173469457       -0.74289108125224
C            1.48415500902703        0.66584216141948       -1.93184460856890
O           -5.19122303787505        1.92023303548711        2.10625312147165
H           -5.16603694532731        1.65409308510045        3.05097006599319
O            1.50225765449322       -0.35810520815782       -2.96468610980404
N            0.22818827904386       -0.65335673221394       -0.30834316290174
H           -0.65249605536771        0.50380414550689       -1.77433875822766
H            1.13609423742775       -0.73477940575666        0.14119461104821
H           -0.48546059660035       -0.64788256963872        0.41027271185774
N            2.69909497492287        0.63008193255875       -1.07134631395230
C            4.05591853582304        0.86913951183048       -1.60639137366901
H            2.56575968033881        1.35445445595014       -0.35558049122703
C            4.24466075123086        2.36416171961883       -1.80689632447981
O            3.46187338763352        3.09204954665017       -1.23288893987910
O            5.26405463791251        2.80137892748253       -2.58986136290907
H            5.81058465082405        2.05880390914455       -2.92566044736526
C            4.38436622848510        0.01823503945842       -2.84041438159207
H            4.74873752419922        0.57595935225246       -0.80153660581891
C            3.56322941842333        0.34798678216972       -4.02891404844093
H            4.20402242639863       -1.03320044183213       -2.59163174946240
H            5.44591299932212        0.08805717952897       -3.09582917549305
C            2.07603450971277        0.58685615727420       -3.91334953194579
C            1.51096649828293        1.76991029692629       -3.05094616088653
C            0.17608574876266        2.25467845245627       -3.54133128264273
C           -0.32538646519735        1.94176000811759       -4.74277298663535
C            0.39966997092326        1.14918527278659       -5.69630365459585
C            1.55316309535365        0.55030121504503       -5.33074604284969
H            2.23957579259553        2.57091915316452       -2.88324973479550
H           -0.39964613492206        2.87976889575466       -2.88120191105140
H           -1.28753535181203        2.33066601243473       -5.03279489629794
H            0.09359099685749        1.12959724695730       -6.72742946071293
N            2.63762540001216        0.12900642425178       -6.09432124025125
C            3.81160084634213        0.03704726812319       -5.31793200292285
H            2.65159676865670        0.19316962306095       -7.11220349909314
H            4.75608381552107       -0.31736334011639       -5.69528204422953
