48
Energy =
C     5.4643738   -0.9772116    2.5581675 
C     4.2233899   -0.4280435    2.5844818 
C     5.7288536   -2.0287769    1.7376640 
C     4.7501750   -2.5222428    0.9484298 
C     3.5094223   -1.9733120    0.9634342 
C     3.2359897   -0.9274671    1.7914225 
H     4.0275973    0.4168977    3.2405609 
H     4.9803808   -3.3571366    0.2988521 
H     2.7418360   -2.3654547    0.2976802 
H     6.2448779   -0.5716252    3.1933026 
C     1.8646123   -0.2889796    1.7903742 
C     1.8017584    0.9192607    0.8311013 
H     1.6101153    0.0377150    2.8225589 
H     1.0896364   -1.0348823    1.4996294 
C     2.0463153    0.5009286   -0.6085074 
O     6.9958790   -2.6172958    1.6819463 
H     7.6729081   -2.1944693    2.3083428 
O     1.2423788   -0.4696611   -1.1974435 
N     0.5019019    1.5948991    0.9618510 
H     2.6074663    1.6442960    1.0966487 
H    -0.2697887    0.9317393    0.7065378 
H     0.3511790    1.8978653    1.9524266 
N     2.9093818    1.2741019   -1.4436764 
C     4.3629680    1.0853438   -1.2916386 
H     2.4795856    1.9124255   -2.1509232 
C     5.0243521    2.4005073   -0.8966185 
O     5.0660692    3.4461244   -1.8111387 
O     5.5801613    2.5941132    0.3696762 
H     5.5054531    1.7745877    0.9514346 
C     4.9404576    0.5494534   -2.6158449 
H     4.5888300    0.3441453   -0.4925432 
C     4.6475295   -0.9239468   -2.7933193 
H     6.0383911    0.7191353   -2.6573176 
H     4.5173466    1.1218627   -3.4717158 
C     5.4512292   -1.9507913   -2.4723027 
C     6.6936794   -1.9482237   -1.9237565 
C     7.2942085   -3.1467861   -1.6728589 
C     6.6531581   -4.3171751   -1.9711518 
C     5.4033715   -4.2958607   -2.5152785 
C     4.8293219   -3.0977287   -2.7517567 
H     7.2013412   -1.0231822   -1.6693427 
H     8.2826162   -3.1705078   -1.2194249 
H     7.1386150   -5.2674366   -1.7634540 
H     4.8751936   -5.2138000   -2.7488558 
N     3.5303917   -2.8575376   -3.2715477 
C     3.4889107   -1.4230120   -3.2560465 
H     2.7981419   -3.5371346   -3.5822443 
H     2.6174956   -0.8243924   -3.5229532 
