48
Energy =
C    -2.2963541   -0.4893599   -3.7169295 
C    -1.6817589   -0.4172582   -2.5098473 
C    -1.6445073   -0.0983233   -4.8441775 
C    -0.3790110    0.3716439   -4.7506051 
C     0.2421925    0.4373831   -3.5463442 
C    -0.4044290    0.0500573   -2.4102480 
H    -2.2215994   -0.7431470   -1.6267657 
H     0.1429161    0.7026625   -5.6442113 
H     1.2541124    0.8248512   -3.5187883 
H    -3.3100945   -0.8665923   -3.7794673 
C     0.2855466    0.0708615   -1.0497709 
C     0.8756058    1.4410178   -0.5735202 
H     1.0716251   -0.7138904   -1.0495471 
H    -0.4367410   -0.2591172   -0.2729974 
C     2.4000711    1.5313300   -0.6784215 
O    -2.2596644   -0.1808970   -6.1020649 
H    -3.2186678   -0.4987983   -6.0669871 
O     3.1417886    1.7241246    0.4875667 
N     0.2018375    2.5998891   -1.1858956 
H     0.6923593    1.5122065    0.5211942 
H     0.6004231    2.7809673   -2.1433657 
H    -0.8185305    2.4172281   -1.3167777 
N     3.0842760    1.0654013   -1.8450922 
C     3.9519950    2.0100556   -2.5686497 
H     3.0521371    0.0540202   -2.0793140 
C     3.1619765    3.1640687   -3.1538433 
O     3.0787321    4.3484588   -2.4310051 
O     2.4558601    3.0682886   -4.3349180 
H     2.7951404    2.1416439   -4.9689333 
C     4.7979774    1.2308234   -3.6022708 
H     4.6380141    2.5198534   -1.8537927 
C     3.9454847    0.4139350   -4.5386759 
H     5.5529161    0.6044669   -3.0899875 
H     5.3747844    1.9535116   -4.2244875 
C     3.8294382   -0.9200777   -4.5561635 
C     4.3343129   -1.8506371   -3.7007958 
C     4.0564494   -3.1669628   -3.9279949 
C     3.2896406   -3.5287720   -4.9989983 
C     2.8055434   -2.5748370   -5.8434690 
C     3.0983360   -1.2792050   -5.5911525 
H     4.9322576   -1.5595034   -2.8463847 
H     4.4432641   -3.9243898   -3.2528856 
H     3.0647439   -4.5753822   -5.1795134 
H     2.1968886   -2.8355300   -6.7008897 
N     2.7008931   -0.1670484   -6.3693397 
C     3.1912680    1.0595188   -5.6960012 
H     2.1508166   -0.1941194   -7.2572379 
H     2.2591707    1.4802737   -6.1335040 
