48
Energy =
C     3.2160541    4.4618608    0.7274831 
C     2.5233187    3.3551059    1.1010970 
C     2.5724522    5.5052477    0.1388352 
C     1.2390767    5.4319121   -0.0746010 
C     0.5426375    4.3266357    0.2929853 
C     1.1806251    3.2841200    0.8914391 
H     3.0503740    2.5125827    1.5478051 
H     0.7391636    6.2659206   -0.5538635 
H    -0.5254402    4.2810374    0.0986862 
H     4.2885685    4.5048683    0.8841819 
C     0.4133526    2.0368881    1.2716083 
C     0.4384610    0.9872364    0.1373040 
H    -0.6384396    2.3078864    1.5099115 
H     0.8337330    1.5929021    2.2026561 
C     1.8324911    0.4277476   -0.0892181 
O     3.2546247    6.6633657   -0.2507194 
H     4.2626883    6.5899731   -0.1650170 
O     2.6291439    0.0577452    0.9914438 
N    -0.5050454   -0.0987642    0.4371945 
H     0.1288507    1.4764959   -0.8152207 
H    -0.2086235   -0.5736861    1.3244515 
H    -1.4629105    0.2926859    0.5911305 
N     2.2848917    0.1314485   -1.4143907 
C     3.6215120    0.6421262   -1.7714982 
H     1.6504950   -0.3838296   -2.0647609 
C     3.6316217    2.1534249   -1.9427140 
O     4.7310833    2.8715350   -1.4867586 
O     2.6109091    2.8374743   -2.6035039 
H     1.8754672    2.2105666   -2.8928875 
C     4.1241776   -0.0612464   -3.0487641 
H     4.3337105    0.4356167   -0.9358738 
C     4.4499157   -1.5134119   -2.7794788 
H     5.0350586    0.4487813   -3.4357391 
H     3.3567559    0.0188104   -3.8503592 
C     5.5824274   -1.9930461   -2.2421627 
C     6.7003263   -1.3360684   -1.8382625 
C     7.7241425   -2.0653999   -1.3088207 
C     7.6156771   -3.4235873   -1.1899544 
C     6.4817771   -4.0608095   -1.5989335 
C     5.4838159   -3.3177432   -2.1215797 
H     6.7859761   -0.2565098   -1.9245966 
H     8.6293897   -1.5634716   -0.9754535 
H     8.4345587   -3.9972213   -0.7631794 
H     6.3768647   -5.1363136   -1.5054298 
N     4.2243650   -3.7784006   -2.5904375 
C     3.6120560   -2.5438624   -2.9892663 
H     3.8534307   -4.7550734   -2.6375530 
H     2.5995233   -2.4545824   -3.3763781 
