48
Energy =
C     2.3358870   -5.2146553   -3.4213622 
C     1.7914684   -3.9880054   -3.6233566 
C     3.5439438   -5.5241420   -3.9639191 
C     4.1962745   -4.6053287   -4.7111094 
C     3.6579540   -3.3768988   -4.9144759 
C     2.4503659   -3.0606423   -4.3711844 
H     0.8301470   -3.7516786   -3.1744023 
H     5.1568011   -4.8664015   -5.1416111 
H     4.2008124   -2.6490309   -5.5122858 
H     1.8050151   -5.9447458   -2.8201078 
C     1.8770401   -1.6730735   -4.5599493 
C     2.4752457   -0.6645510   -3.5470357 
H     0.7668004   -1.6840050   -4.4822753 
H     2.0951084   -1.3364820   -5.5993677 
C     2.2540133    0.7898125   -3.9727401 
O     4.1394434   -6.7738573   -3.7658292 
H     3.5814045   -7.4118889   -3.2084840 
O     1.2404137    1.0670428   -4.8853935 
N     1.9282959   -0.9017717   -2.2010186 
H     3.5678947   -0.8211403   -3.5313134 
H     0.8803931   -0.8812777   -2.2255378 
H     2.2235748   -1.8450154   -1.8557186 
N     3.0673440    1.9052466   -3.5354976 
C     4.0710313    1.6320948   -2.4693926 
H     2.3629729    2.6077212   -3.2061589 
C     4.2238683    2.8254430   -1.5233026 
O     4.1709355    2.6217691   -0.1505288 
O     4.4689935    4.1138841   -1.9986298 
H     4.4670617    4.1421985   -3.0085842 
C     5.4296337    1.2930781   -3.1379555 
H     3.7543514    0.7974427   -1.8053437 
C     6.4313628    0.7346178   -2.1438136 
H     5.8574406    2.2068642   -3.6078217 
H     5.2874455    0.5853086   -3.9789985 
C     6.7620131   -0.5558225   -1.9505997 
C     6.3495694   -1.6755759   -2.6013165 
C     6.8345309   -2.8829771   -2.1924609 
C     7.7219825   -2.9547787   -1.1555726 
C     8.1324904   -1.8192619   -0.5236259 
C     7.6367357   -0.6368816   -0.9451023 
H     5.6637209   -1.6285911   -3.4353118 
H     6.5151976   -3.7940304   -2.6940884 
H     8.1038232   -3.9211427   -0.8349567 
H     8.8379194   -1.8578778    0.2995444 
N     7.9335724    0.6489863   -0.4225529 
C     7.1122462    1.4801084   -1.2532685 
H     8.5821411    0.9178060    0.3529164 
H     7.0300158    2.5625034   -1.1508636 
