48
Energy =
C    -2.2424700    4.8748260   -2.8310530 
C    -0.9277017    4.6513111   -3.0814872 
C    -3.1047140    3.8290147   -2.7217150 
C    -2.6431243    2.5652243   -2.8597126 
C    -1.3297191    2.3360754   -3.1125788 
C    -0.4636696    3.3796367   -3.2302582 
H    -0.2488607    5.4961623   -3.1609544 
H    -3.3378022    1.7386078   -2.7589456 
H    -0.9773231    1.3125476   -3.2061559 
H    -2.6023065    5.8914591   -2.7166391 
C     1.0056752    3.1304796   -3.4931196 
C     1.8485880    3.1803175   -2.1920015 
H     1.3746409    3.8974641   -4.2092748 
H     1.1507829    2.1479454   -3.9957824 
C     1.4897473    2.0593861   -1.2407225 
O    -4.4668368    4.0253367   -2.4705280 
H    -4.7301125    4.9977657   -2.3554154 
O     0.3573885    2.1539733   -0.4411196 
N     3.2873892    3.1459133   -2.5262398 
H     1.6319226    4.1173441   -1.6273527 
H     3.4766258    2.2986864   -3.1139633 
H     3.4827246    3.9346018   -3.1905074 
N     2.1664742    0.8050022   -1.3347555 
C     3.5687294    0.7335152   -0.8700119 
H     1.6818974    0.0255466   -1.8292109 
C     4.2761620    2.1003107   -0.6620265 
O     4.0853880    3.2487747   -1.4848237 
O     5.2140769    2.2315654    0.3670112 
H     5.3133227    1.3945872    0.9192034 
C     4.3949520   -0.1764904   -1.8098237 
H     3.5381333    0.2570799    0.1334076 
C     3.9545715   -1.6222366   -1.7383502 
H     5.4746951   -0.1218963   -1.5446539 
H     4.3151277    0.1864972   -2.8564613 
C     4.2298355   -2.4994071   -0.7602410 
C     4.9661346   -2.3409055    0.3695814 
C     5.0929962   -3.4042813    1.2145834 
C     4.4901109   -4.5961625    0.9201826 
C     3.7574057   -4.7321583   -0.2216432 
C     3.6468294   -3.6656662   -1.0412070 
H     5.4474722   -1.3963228    0.6025181 
H     5.6764889   -3.3042574    2.1268522 
H     4.5951826   -5.4391083    1.5987196 
H     3.2730478   -5.6703634   -0.4702823 
N     2.9362141   -3.5954479   -2.2693618 
C     3.1866922   -2.2377907   -2.6547598 
H     2.3818894   -4.3365647   -2.7564400 
H     2.8009592   -1.7755155   -3.5603995 
