48
Energy =
C     0.0682498   -4.2660756    1.2117017 
C     0.8734524   -3.2070435    0.9443369 
C    -1.1858303   -4.3204977    0.6887198 
C    -1.6250471   -3.3138013   -0.1003766 
C    -0.8240807   -2.2521984   -0.3712355 
C     0.4301614   -2.1901622    0.1544426 
H     1.8751601   -3.1820506    1.3640615 
H    -2.6259499   -3.3707621   -0.5139426 
H    -1.1931617   -1.4553978   -1.0123128 
H     0.4311959   -5.0700412    1.8427031 
C     1.3292265   -1.0159431   -0.1644626 
C     1.9981343   -1.1655985   -1.5490680 
H     2.1032850   -0.8880246    0.6233115 
H     0.7199053   -0.0832513   -0.1457065 
C     2.6763613    0.1310776   -1.9701223 
O    -2.0407700   -5.3976153    0.9445881 
H    -1.6370137   -6.1097132    1.5430115 
O     2.0144457    0.9719773   -2.8557401 
N     2.9374431   -2.3071144   -1.5659804 
H     1.2015078   -1.3274511   -2.3171344 
H     3.4264238   -2.4071863   -0.6451762 
H     2.3869558   -3.1902279   -1.6960352 
N     3.9137617    0.5739047   -1.3721157 
C     4.9569436    0.8728630   -2.3844678 
H     4.2633274   -0.1824589   -0.7424373 
C     4.7234429    2.2191722   -3.0853596 
O     5.0832203    2.3765333   -4.4198620 
O     4.2936320    3.3458331   -2.3860929 
H     3.9515441    3.0985526   -1.4702838 
C     5.1368696   -0.3154101   -3.3777142 
H     5.9145255    1.0272241   -1.8369567 
C     6.5421032   -0.3851367   -3.9362405 
H     4.3971359   -0.2250217   -4.2069932 
H     4.9001955   -1.2827864   -2.8812116 
C     7.6121153   -0.9278126   -3.3347664 
C     7.7112966   -1.5461037   -2.1296266 
C     8.9327762   -2.0110658   -1.7394876 
C    10.0237952   -1.8508853   -2.5485674 
C     9.9001559   -1.2240569   -3.7530600 
C     8.6810440   -0.7749473   -4.1176928 
H     6.8476251   -1.6713556   -1.4831297 
H     9.0405859   -2.5105403   -0.7794621 
H    10.9944636   -2.2227334   -2.2295003 
H    10.7562329   -1.0850898   -4.4048408 
N     8.3398521   -0.0909279   -5.3145475 
C     6.9359479    0.1317358   -5.1145096 
H     8.9464538    0.1724605   -6.1251376 
H     6.2892765    0.6740023   -5.8060933 
