48
Energy =
C    -3.6399785    2.0187087   -1.5448331 
C    -2.2902708    1.9034982   -1.4669456 
C    -4.3354412    1.2996493   -2.4659880 
C    -3.6738879    0.4686606   -3.3032620 
C    -2.3240212    0.3493192   -3.2298553 
C    -1.6229951    1.0699793   -2.3122437 
H    -1.7491936    2.4810580   -0.7219215 
H    -4.2400122   -0.1004358   -4.0323005 
H    -1.8100828   -0.3258082   -3.9095988 
H    -4.1610275    2.6862922   -0.8674286 
C    -0.1203081    0.9238768   -2.2198378 
C     0.2908354   -0.3537685   -1.4514361 
H     0.3281270    1.8209273   -1.7384541 
H     0.2973983    0.8972582   -3.2524536 
C     1.7641059   -0.6660028   -1.6420171 
O    -5.7271570    1.3945374   -2.5719815 
H    -6.1464172    2.0400373   -1.9118134 
O     2.1286868   -1.8101908   -2.3455746 
N    -0.0494417   -0.2353752   -0.0218863 
H    -0.2448374   -1.2325545   -1.8850464 
H     0.3330128    0.6580690    0.3690240 
H    -1.0902673   -0.2094047    0.0909268 
N     2.7683473    0.0374084   -0.8919804 
C     3.7459085    0.7542848   -1.7438985 
H     3.2489566   -0.6929038   -0.3191189 
C     3.0906397    1.9123149   -2.4955424 
O     2.7990435    1.7932528   -3.8503679 
O     2.7096728    3.0797315   -1.8349356 
H     2.9026170    3.0278980   -0.8446740 
C     4.5271117   -0.2130539   -2.6745166 
H     4.4857362    1.2295146   -1.0607526 
C     5.7868187    0.4285858   -3.2134595 
H     3.8793756   -0.5405230   -3.5220055 
H     4.7881180   -1.1465938   -2.1307297 
C     6.9744684    0.5061052   -2.5930698 
C     7.3562092    0.0261243   -1.3815685 
C     8.6377438    0.2496619   -0.9711457 
C     9.5069095    0.9439883   -1.7668151 
C     9.0994087    1.4199025   -2.9777897 
C     7.8276911    1.1834330   -3.3624373 
H     6.6670040   -0.5215513   -0.7460501 
H     8.9699392   -0.1247730   -0.0057039 
H    10.5262554    1.1195629   -1.4318945 
H     9.7743866    1.9766720   -3.6189949 
N     7.2025151    1.6004902   -4.5675122 
C     5.8791997    1.0774638   -4.3882248 
H     7.6015629    2.1406115   -5.3693194 
H     5.0602624    1.2157710   -5.0944352 
