48
Energy =
C    -4.2054504    1.7577496   -1.6984782 
C    -2.8583594    1.8851767   -1.8037450 
C    -4.8329370    0.6724870   -2.2257084 
C    -4.1064633   -0.2794182   -2.8542067 
C    -2.7593350   -0.1573041   -2.9624714 
C    -2.1271113    0.9296582   -2.4410926 
H    -2.3711152    2.7553778   -1.3716163 
H    -4.6178572   -1.1415949   -3.2678624 
H    -2.1925653   -0.9356716   -3.4671302 
H    -4.7792244    2.5249594   -1.1899435 
C    -0.6236260    1.0561500   -2.5453556 
C     0.1047510    0.1879313   -1.4937130 
H    -0.3086926    2.1187655   -2.4425322 
H    -0.3091162    0.7428344   -3.5665185 
C     1.5997431    0.1545486   -1.7624675 
O    -6.2192901    0.5105183   -2.1342231 
H    -6.6909118    1.2662205   -1.6495999 
O     2.1145042   -0.9925916   -2.3533500 
N    -0.1862440    0.6618056   -0.1273721 
H    -0.2325812   -0.8721739   -1.5961873 
H    -0.1309579    1.7064968   -0.0790504 
H    -1.1682048    0.3982631    0.1267109 
N     2.3696795    1.3740843   -1.6177065 
C     3.8181686    1.4843757   -1.9731149 
H     2.2578656    1.6506843   -0.6145713 
C     4.0431825    2.7845798   -2.7381003 
O     5.0778039    3.6302338   -2.3593866 
O     3.2764777    3.1184182   -3.8556145 
H     2.5171531    2.4654651   -3.9809552 
C     4.4311765    0.2828773   -2.7374015 
H     4.4065104    1.5917574   -1.0307125 
C     5.8928041    0.4976436   -3.0811418 
H     3.8444762    0.0605539   -3.6546532 
H     4.3835387   -0.6198908   -2.0898351 
C     6.3970868    0.9846322   -4.2280012 
C     5.7636691    1.3894872   -5.3594298 
C     6.5195374    1.8575228   -6.3937726 
C     7.8812994    1.9134095   -6.2847206 
C     8.4958410    1.5038548   -5.1391005 
C     7.7267187    1.0448912   -4.1296102 
H     4.6824652    1.3613327   -5.4481149 
H     6.0352991    2.1966473   -7.3065698 
H     8.4759229    2.2931676   -7.1118801 
H     9.5745076    1.5485258   -5.0336041 
N     8.1647849    0.5843489   -2.8593890 
C     6.9149269    0.2570959   -2.2398999 
H     9.1373928    0.4999245   -2.4843684 
H     6.8141918   -0.1207546   -1.2247836 
