48
 energy: -9.071459844397 gnorm: 0.000734492726 xtb: 6.6.0 (2ccbbd7)
C           -2.91960482279478        0.43930587933864        2.06538135176587
C           -1.68900157498584        0.81782228986960        1.58266689350588
C           -4.08622894233688        0.77369947216568        1.37670847273508
C           -3.96803760787566        1.49567945226350        0.18942922953099
C           -2.73423287582041        1.86948424385015       -0.28724285564553
C           -1.57727080596622        1.54211008407484        0.40437324565416
H           -0.79504805802902        0.55118903160109        2.12008246402442
H           -4.86693141420974        1.75147973575753       -0.34256701288662
H           -2.65539075202185        2.42213341009579       -1.20784764588475
H           -2.99561144945570       -0.12023143891837        2.98048373924630
C           -0.23565873527074        1.91820228222595       -0.14189132852815
C            0.24666368875427        0.96950030423466       -1.24176993793353
H            0.50163521181299        1.93547116984091        0.66581961198549
H           -0.27133846943121        2.94208876719438       -0.52911586827481
C            1.53434420176833        1.47260649519217       -1.85451143810580
O           -5.33839752676065        0.41022963598157        1.83550539178400
H           -5.25660312833667       -0.08247629788970        2.68069267712372
O            1.48632584650285        2.04892114774444       -2.92348565389493
N            0.37633396241726       -0.40682541666468       -0.78082469816200
H           -0.49874747048853        0.96285441394034       -2.05325424477271
H            1.08476628142628       -0.46881352639990       -0.06192487103377
H           -0.49308930663938       -0.72714759991429       -0.37344176685981
N            2.70319775942219        1.29514685001435       -1.14996316815471
C            4.01537896413932        1.75203631751547       -1.62918276984700
H            2.68081147246175        0.97452460522274       -0.18064291486564
C            4.18071961882023        3.22347510869779       -1.38033989058012
O            5.36806914137864        3.67705928115220       -0.88385844147440
O            3.12107719596033        4.03288837069727       -1.70649932783491
H            2.45337053775726        3.46317761644653       -2.16244850506255
C            4.23419382940834        1.39499550591460       -3.10852739634490
H            4.77762514466642        1.22343724602239       -1.03716812743363
C            5.65053767265020        1.10354074737009       -3.49817754570802
H            3.83069318691858        2.19525293663967       -3.73720602808606
H            3.62214752274186        0.51538583946615       -3.33754558909580
C            6.86442285261375        1.65212235568432       -2.97524152177094
C            7.15616584084842        2.58817653076317       -1.97246716079055
C            8.45507274906574        2.89540695653909       -1.69807287545799
C            9.50770609075553        2.28832389171161       -2.40119102856607
C            9.25871254274556        1.37428398319622       -3.38749292367527
C            7.92756697283239        1.05182795254623       -3.68209069884477
H            6.23946923081040        3.15099755980812       -1.38012566058229
H            8.67508181716259        3.61976511305216       -0.93157117379117
H           10.52488716015303        2.54993496386796       -2.16095940383773
H           10.05536410387987        0.90359308107416       -3.93510751024886
N            7.37791541538748        0.18198744602948       -4.60452941274104
C            6.01158329883029        0.22391961128604       -4.48941377363643
H            7.91522706839425       -0.39744184731038       -5.25208792365462
H            5.32756848902510       -0.35535846770432       -5.08845256701008
