48
 energy: -9.067024409394 gnorm: 0.000631248090 xtb: 6.6.0 (2ccbbd7)
C           -3.66020415780521       -1.37523399509139        0.02495585290392
C           -2.50536712603342       -1.11402013278593       -0.67414565486439
C           -3.60455794605490       -1.87389777006344        1.32696241316963
C           -2.35097832985638       -2.09779695659333        1.89566510865301
C           -1.20121449379001       -1.83315102890142        1.19049365424200
C           -1.26037223243532       -1.34298422379124       -0.10566535331545
H           -2.56036100715561       -0.72469198931654       -1.67636565651377
H           -2.30785549007077       -2.48069407316305        2.89957960408073
H           -0.23919702128276       -2.00393361039296        1.64259666097190
H           -4.61983705003237       -1.19569560834969       -0.42573101736804
C           -0.00420085578835       -1.01739105409262       -0.85103339003541
C            0.61125255593896        0.32055109559542       -0.43402956550908
H           -0.20372191571646       -0.99536327332617       -1.92623294710970
H            0.73102873253614       -1.81631515152695       -0.70664659485370
C            1.93426579167762        0.54226866356570       -1.13343416420812
O           -4.74621248105810       -2.14503742983257        2.05752751137610
H           -5.54350679819223       -1.94192128402671        1.52191024582153
O            2.64689960841553       -0.40852852146292       -1.38418209121900
N           -0.29232054956176        1.43684084643692       -0.68349708930017
H            0.81657755952069        0.29656273142797        0.64740410305782
H           -0.47389147831548        1.50419534018393       -1.67638546095397
H           -1.18087641022220        1.27785958482734       -0.22692946804844
N            2.26551109158316        1.84227682367201       -1.43925089811676
C            3.60703333846234        2.21088792986404       -1.89263573264354
H            1.72925579981594        2.60745849220639       -1.01418656365373
C            3.63884285972552        3.66686505006880       -2.25603764169024
O            4.76232568038122        4.39572744752655       -1.99607227519155
O            2.52537911473043        4.19615194001054       -2.86597329556371
H            1.82280398475615        3.50804797992492       -2.93631571684072
C            4.08584499866656        1.33547988750321       -3.06803140934470
H            4.27523752840905        2.04622439008319       -1.03480877027788
C            5.53963418216127        0.98302344147048       -3.03488786131380
H            3.84347240168011        1.82822361878775       -4.01473807971376
H            3.50965203572123        0.40422405149842       -3.06111866236717
C            6.64184319988070        1.80867435280090       -2.65768166725751
C            6.74219877935450        3.12899912204178       -2.20218993719906
C            7.97000822680548        3.64691514720295       -1.91797116951797
C            9.13396719191918        2.87628291521896       -2.07283542431760
C            9.06865838828733        1.58260340720014       -2.51316093421721
C            7.81240942609509        1.03787680619790       -2.81013971383589
H            5.71427717262695        3.79042449222936       -2.07832845860992
H            8.04584880739448        4.66407034094676       -1.57137854912902
H           10.09123396658891        3.31290216227893       -1.84100151677443
H            9.95251179896528        0.98244538202438       -2.63425095654234
N            7.43089566893468       -0.20995838275636       -3.26727793475428
C            6.06478273516370       -0.23272821106593       -3.39935401358748
H            8.07163951094332       -0.98214123106866       -3.45959461377367
H            5.49323691249705       -1.08381618010436       -3.73314754512941
