48
 energy: -9.296109127673 gnorm: 0.000414594899 xtb: 6.6.0 (2ccbbd7)
C            1.05487847256655        4.79130890233254       -1.92720895261450
C            0.96143618971048        3.69928592423540       -2.75518564107987
C           -0.08374537131579        5.31007520517320       -1.31155914750762
C           -1.30738791660675        4.68809264869297       -1.55895584832559
C           -1.38725843401244        3.58899729544551       -2.38119168112058
C           -0.25338862399598        3.07640582401077       -2.99506257007272
H            1.85218451806980        3.30262939102380       -3.20669199756138
H           -2.18562478516838        5.08764585762218       -1.08427926125088
H           -2.33752880012132        3.11248706697421       -2.55041088657082
H            2.01294010712517        5.24256631716958       -1.73758023526068
C           -0.32865074931103        1.83905024274496       -3.83865935469499
C            0.19983720995197        0.58547893700213       -3.12400637762549
H            0.23988544988416        1.99658298788362       -4.76114743692655
H           -1.36668442171119        1.67833774312115       -4.14649669929037
C            1.70670524384828        0.64065845027080       -2.99508317504273
O           -0.02834923011992        6.40541531492162       -0.47162656463732
H            0.89739435869073        6.71981989619266       -0.39048921424330
O            2.38142023512377        0.41672508673888       -3.98127459104411
N           -0.44881186884456        0.37989679415055       -1.83359282105649
H           -0.01200294312843       -0.30277969256650       -3.74174758189064
H           -0.36322962045984        1.21754620950927       -1.27415416710656
H           -1.44096004878327        0.22366895284148       -1.95990740437416
N            2.24427510677810        0.97855825671253       -1.77569558733662
C            3.67345719198117        1.22281733966409       -1.55227540732955
H            1.62864463198917        1.21414674991619       -0.99134661764917
C            4.05854541024188        2.58408600758868       -2.09770303562433
O            4.50126861536964        3.41349118239582       -1.33329119001303
O            3.86022863804265        2.75381451615927       -3.42654604889507
H            3.41791926790998        1.94509466136878       -3.77803152346296
C            4.55643707913228        0.12099985170545       -2.13382787047971
H            3.83739032639346        1.25049461998582       -0.46459472319072
C            4.20165073181795       -1.23192127957224       -1.62325400140256
H            5.61038334469644        0.33586130068817       -1.93063604437537
H            4.45308929665720        0.12010717301417       -3.22288380287449
C            4.75764860145442       -1.90716864960514       -0.49757710065901
C            5.76937722585915       -1.56930253487258        0.41720943245162
C            6.07766424276850       -2.45826344752416        1.40943710164048
C            5.40254119614462       -3.68471962474161        1.52293147105655
C            4.41086024577589       -4.03187339987895        0.64674393372430
C            4.07903275555341       -3.13608956843982       -0.37745567449289
H            6.28119636271432       -0.62761008325095        0.32755420672808
H            6.85208437367944       -2.21552457542000        2.11803365392066
H            5.67131674988840       -4.36232278851463        2.31631920454327
H            3.88738208600740       -4.96751308035527        0.72809062809921
N            3.13677565022673       -3.19363905311628       -1.39037926684830
C            3.21361289368469       -2.03854079013475       -2.12712784655081
H            2.48400355517083       -3.96553581934676       -1.53770093023679
H            2.58334761838221       -1.78298934796701       -2.96365565193087
