48
Energy =
C     1.8992560    6.1682160   -0.4839386 
C     1.2228765    5.0719737   -0.9139174 
C     2.6667521    6.8819299   -1.3500598 
C     2.7608232    6.4877223   -2.6395692 
C     2.0850484    5.3955779   -3.0764169 
C     1.3037560    4.6826231   -2.2172250 
H     0.6302893    4.4997865   -0.2025491 
H     3.3946845    7.0512644   -3.3145157 
H     2.1934486    5.0857653   -4.1116134 
H     1.8333766    6.4673413    0.5567020 
C     0.5536282    3.4574172   -2.7026976 
C     1.4032669    2.1657091   -2.6104822 
H     0.2388562    3.6165470   -3.7571953 
H    -0.3876262    3.3288090   -2.1216003 
C     1.7291308    1.7941390   -1.1724301 
O     3.3572553    8.0285065   -0.9438543 
H     3.3175645    8.1949451    0.0556863 
O     0.7547568    1.9467944   -0.1903444 
N     0.6994011    1.0587309   -3.2884635 
H     2.3914046    2.3361345   -3.1019083 
H    -0.2479314    0.9198180   -2.8586277 
H     0.5687308    1.2805553   -4.3037414 
N     2.8442882    0.9402486   -0.8833725 
C     4.2098757    1.5063403   -0.8186784 
H     2.6617476   -0.0839591   -0.8031334 
C     4.2677792    3.0310646   -0.9713419 
O     4.2948041    3.6102604   -2.2313550 
O     4.1671168    3.8760190    0.1308782 
H     4.0095478    3.3661420    0.9871283 
C     5.1538585    0.7412231   -1.7804812 
H     4.5993498    1.3068073    0.2031562 
C     4.6968919    0.7232529   -3.2277505 
H     5.2386851   -0.3114977   -1.4319424 
H     6.1786608    1.1640641   -1.7061262 
C     5.1554577    1.4801569   -4.2414946 
C     6.1093268    2.4472020   -4.2512468 
C     6.3920642    3.0706119   -5.4309431 
C     5.7292278    2.7198237   -6.5737313 
C     4.7768929    1.7456266   -6.5428280 
C     4.5124485    1.1465809   -5.3627065 
H     6.6236491    2.7430742   -3.3423810 
H     7.1442778    3.8548209   -5.4590580 
H     5.9614600    3.2209445   -7.5097058 
H     4.2433362    1.4540375   -7.4408277 
N     3.5687121    0.1142501   -5.1210849 
C     3.7574025   -0.1061436   -3.7177688 
H     2.9107216   -0.3550183   -5.7840764 
H     3.2089051   -0.8419984   -3.1356339 
