48
Energy =
C     1.6402601   -2.5834228   -3.6406621 
C     1.6186424   -2.4359988   -2.2918762 
C     0.5156856   -2.3556155   -4.3703446 
C    -0.6230491   -1.9811382   -3.7439054 
C    -0.6492579   -1.8302786   -2.3951684 
C     0.4736271   -2.0553972   -1.6602832 
H     2.5267045   -2.6157935   -1.7190849 
H    -1.5127507   -1.8019318   -4.3378428 
H    -1.5732913   -1.5258252   -1.9107775 
H     2.5593712   -2.8826850   -4.1336962 
C     0.4628766   -1.8607263   -0.1579997 
C     0.8442814   -0.4244684    0.2802690 
H     1.1754181   -2.5773801    0.3107204 
H    -0.5352314   -2.1271189    0.2537692 
C     2.1699834    0.0344840   -0.3127147 
O     0.5037534   -2.4979898   -5.7611878 
H     1.3946971   -2.7817873   -6.1537191 
O     3.3333209   -0.6140996    0.0999321 
N    -0.2576273    0.5182375    0.0166342 
H     1.0299519   -0.4382368    1.3800654 
H    -0.4501807    0.5891304   -1.0094433 
H    -1.1352609    0.1892745    0.4827718 
N     2.2062239    0.9771318   -1.4048533 
C     3.5723590    1.3706359   -1.8228927 
H     1.6807919    0.5573230   -2.2052417 
C     3.5362595    2.7295937   -2.5164420 
O     2.5953649    2.9617191   -3.5141528 
O     4.4828532    3.7214737   -2.2498863 
H     5.1685602    3.4322442   -1.5690184 
C     4.1833992    0.2932191   -2.7564932 
H     4.2148830    1.4971063   -0.9199014 
C     5.6541838    0.5436365   -3.0025652 
H     3.6261085    0.2515805   -3.7187741 
H     4.0781668   -0.7107082   -2.2949516 
C     6.2040493    1.2357773   -4.0138807 
C     5.6167499    1.8532560   -5.0713871 
C     6.4133524    2.5077529   -5.9640496 
C     7.7693805    2.5355227   -5.7896412 
C     8.3370850    1.9105968   -4.7192466 
C     7.5279428    1.2694387   -3.8498864 
H     4.5393417    1.8449914   -5.2087912 
H     5.9649679    3.0169260   -6.8140883 
H     8.3962237    3.0639574   -6.5036194 
H     9.4101565    1.9290023   -4.5622847 
N     7.9127901    0.5757744   -2.6710457 
C     6.6383180    0.1427708   -2.1790523 
H     8.8669058    0.4230009   -2.2711073 
H     6.4912468   -0.4164481   -1.2571200 
