48
Energy =
C     4.1949240    3.2162218   -7.1400275 
C     4.0157811    3.0272089   -5.8085645 
C     3.2538067    3.8725561   -7.8698028 
C     2.1390582    4.3364362   -7.2603711 
C     1.9547331    4.1506277   -5.9287054 
C     2.8949875    3.4959265   -5.1936675 
H     4.7777402    2.4999822   -5.2386075 
H     1.3962208    4.8580073   -7.8539762 
H     1.0501828    4.5272084   -5.4583197 
H     5.0929287    2.8402152   -7.6183445 
C     2.6893305    3.2678244   -3.7132726 
C     2.1967475    1.8309869   -3.4060466 
H     1.9756685    4.0099597   -3.2897250 
H     3.6559492    3.4607619   -3.1868843 
C     2.2611281    1.5509540   -1.9158964 
O     3.4052808    4.0818037   -9.2443954 
H     4.2713257    3.7142389   -9.6237205 
O     1.6020268    2.3897665   -1.0243519 
N     0.8284544    1.6287637   -3.9138433 
H     2.8809114    1.0922902   -3.8835426 
H     0.1880823    2.3556745   -3.5125635 
H     0.8141958    1.7247219   -4.9558793 
N     2.8513091    0.3445067   -1.4114405 
C     4.3162730    0.1355414   -1.4983729 
H     2.2027625   -0.3862692   -1.0426974 
C     5.1020093    1.4118648   -1.8058982 
O     5.7870593    1.5454965   -3.0079266 
O     5.1046118    2.4877907   -0.9224661 
H     4.4861564    2.3248154   -0.1381762 
C     4.6270345   -0.9926294   -2.5087203 
H     4.6823608   -0.1870110   -0.4981424 
C     3.9722476   -2.2994477   -2.1225250 
H     5.7287638   -1.1470120   -2.5660211 
H     4.3132502   -0.6947674   -3.5301737 
C     2.7992768   -2.7777587   -2.5681778 
C     1.9311364   -2.2573455   -3.4728367 
C     0.7838963   -2.9422397   -3.7395124 
C     0.5216325   -4.1266349   -3.1068506 
C     1.4083389   -4.6308839   -2.2019814 
C     2.5375224   -3.9332746   -1.9557219 
H     2.1255808   -1.3192730   -3.9816853 
H     0.0768454   -2.5369934   -4.4578805 
H    -0.3974955   -4.6658716   -3.3238841 
H     1.2159680   -5.5663820   -1.6867621 
N     3.5732088   -4.2718312   -1.0445321 
C     4.4600703   -3.1574766   -1.2098926 
H     3.6629035   -5.1071968   -0.4211614 
H     5.3880532   -3.0222330   -0.6584625 
