48
Energy =
C    -0.7000510   -4.2520388   -5.1333314 
C    -0.3863458   -2.9474605   -5.3369789 
C    -1.0565604   -4.6839504   -3.8942942 
C    -1.0960747   -3.8060645   -2.8668937 
C    -0.7870885   -2.5000828   -3.0658687 
C    -0.4256572   -2.0608921   -4.3029673 
H    -0.1000078   -2.6189758   -6.3325449 
H    -1.3739806   -4.1632384   -1.8816726 
H    -0.8162800   -1.8126887   -2.2250799 
H    -0.6639122   -4.9486341   -5.9639561 
C    -0.0754398   -0.6025903   -4.5316613 
C     1.4171462   -0.2567590   -4.2960775 
H    -0.7099682    0.0402729   -3.8821656 
H    -0.3425295   -0.3199946   -5.5739678 
C     1.8166618   -0.3019884   -2.8263036 
O    -1.3881880   -6.0209310   -3.6511179 
H    -1.3220469   -6.6160235   -4.4694907 
O     1.8346039   -1.5025791   -2.1261136 
N     2.3048604   -1.0893872   -5.1288294 
H     1.5522340    0.8047184   -4.6066276 
H     2.2628265   -2.0863391   -4.8010670 
H     1.9820034   -1.0696853   -6.1246735 
N     2.1421427    0.9015585   -2.1165891 
C     3.4835578    1.5168191   -2.2478050 
H     1.3964534    1.3328926   -1.5261399 
C     3.4030007    2.8580285   -2.9756284 
O     2.6191593    2.9803396   -4.1161595 
O     4.1500401    3.9617601   -2.5627933 
H     4.7509920    3.7505943   -1.7799618 
C     4.5109208    0.5577357   -2.9057505 
H     3.8377965    1.7317136   -1.2152166 
C     5.9199815    1.1027486   -2.8319459 
H     4.2336664    0.3483977   -3.9644419 
H     4.4821042   -0.4260808   -2.3831853 
C     6.5454491    1.8612074   -3.7477050 
C     6.1126245    2.3078453   -4.9551928 
C     6.9532202    3.0829526   -5.6984496 
C     8.1990557    3.3971060   -5.2303856 
C     8.6113043    2.9397927   -4.0141079 
C     7.7616924    2.1743978   -3.2973116 
H     5.1199165    2.0719492   -5.3277242 
H     6.6266356    3.4587747   -6.6652543 
H     8.8607869    4.0191647   -5.8279413 
H     9.5939052    3.1849881   -3.6256318 
N     7.9879039    1.6136130   -2.0115761 
C     6.7440370    0.9406493   -1.7820038 
H     8.8332962    1.6780750   -1.3992002 
H     6.5039453    0.3869803   -0.8770678 
