48
Energy =
C    -0.1981654    7.0522031   -3.6311991 
C     0.1335540    6.0019207   -2.8380443 
C     0.5821987    7.3787764   -4.6962630 
C     1.6908723    6.6507561   -4.9606769 
C     2.0276178    5.6001429   -4.1716675 
C     1.2511217    5.2703608   -3.1019586 
H    -0.5032474    5.7509579   -1.9933537 
H     2.3063349    6.9182323   -5.8130179 
H     2.9238487    5.0272958   -4.4043915 
H    -1.0900399    7.6297278   -3.4128159 
C     1.6180654    4.0874261   -2.2338159 
C     1.1844837    2.7441783   -2.8732736 
H     1.1732729    4.1842763   -1.2184722 
H     2.7204637    4.1020909   -2.0689895 
C     1.9177754    1.5781807   -2.2326390 
O     0.2667774    8.4540227   -5.5330848 
H    -0.5759960    8.9514271   -5.2674063 
O     1.9346111    1.4453444   -0.8485362 
N    -0.2739963    2.5641707   -2.7695779 
H     1.4754912    2.7333544   -3.9518802 
H    -0.5728995    2.6042671   -1.7646355 
H    -0.7687231    3.3298343   -3.2846834 
N     2.8135370    0.7790728   -3.0138142 
C     4.2316985    1.1821555   -3.0054253 
H     2.4372374   -0.0561883   -3.5163777 
C     4.4363414    2.4805109   -3.7768649 
O     5.0375198    3.5609111   -3.1454677 
O     3.9551631    2.6512369   -5.0756676 
H     3.5533725    1.7967135   -5.4348270 
C     5.0884068    0.0254264   -3.5612558 
H     4.5502364    1.3851518   -1.9541097 
C     6.5675289    0.2788940   -3.3609576 
H     4.8655248   -0.1457360   -4.6365336 
H     4.8150149   -0.9148277   -3.0314421 
C     7.4149028    0.8705918   -4.2192407 
C     7.1947679    1.3608381   -5.4664728 
C     8.2396032    1.9285540   -6.1340530 
C     9.4755749    1.9969583   -5.5532095 
C     9.6736589    1.4992693   -4.2996430 
C     8.6241729    0.9423138   -3.6592968 
H     6.2136208    1.3174795   -5.9286836 
H     8.0853104    2.3349138   -7.1306583 
H    10.3017118    2.4552478   -6.0907647 
H    10.6460390    1.5507193   -3.8221184 
N     8.6157511    0.3804161   -2.3543133 
C     7.2439480   -0.0186355   -2.2372494 
H     9.4002184    0.2821024   -1.6699605 
H     6.8115423   -0.4817724   -1.3532238 
