48
Energy =
C    -2.4934150    2.4881362    2.7776599 
C    -1.2077571    2.4712451    2.3433249 
C    -3.2064802    1.3323624    2.8475812 
C    -2.6270016    0.1665411    2.4815029 
C    -1.3417341    0.1435675    2.0462552 
C    -0.6226719    1.2975246    1.9778911 
H    -0.6505555    3.4033255    2.2906190 
H    -3.2071336   -0.7478612    2.5406625 
H    -0.8969853   -0.8034016    1.7524158 
H    -2.9500349    3.4282176    3.0678431 
C     0.8045915    1.2833290    1.4772034 
C     0.9187704    1.7563630    0.0067654 
H     1.2534515    0.2703881    1.5822184 
H     1.4178352    1.9463660    2.1292420 
C     2.3673301    1.9237296   -0.4301886 
O    -4.5334611    1.3147162    3.2892220 
H    -4.8943128    2.2268434    3.5468726 
O     3.4103770    1.5920949    0.4342058 
N     0.2146722    0.8290590   -0.8939561 
H     0.4622037    2.7691262   -0.0814466 
H     0.5301054   -0.1540873   -0.7182878 
H    -0.8154465    0.8698330   -0.7094035 
N     2.6656660    2.4477409   -1.7341364 
C     3.9807678    2.1312969   -2.3193021 
H     1.9774204    3.0782851   -2.2064656 
C     4.4010097    3.2072626   -3.3171571 
O     4.1454537    3.0440197   -4.6748079 
O     4.9903754    4.3971709   -2.8909647 
H     5.0435522    4.4539234   -1.8842364 
C     3.9088018    0.7255860   -2.9522749 
H     4.7675590    2.1357727   -1.5294247 
C     5.2808779    0.2184700   -3.3339824 
H     3.2395979    0.7471211   -3.8425370 
H     3.4441660    0.0131761   -2.2363386 
C     6.1831940   -0.3402120   -2.5130331 
C     6.1010745   -0.6088235   -1.1845166 
C     7.1791095   -1.1763358   -0.5712074 
C     8.3104291   -1.4602595   -1.2857174 
C     8.3711511   -1.1760516   -2.6180381 
C     7.2906298   -0.6172045   -3.2024091 
H     5.2067423   -0.3738721   -0.6129433 
H     7.1397503   -1.3989021    0.4924699 
H     9.1667598   -1.9090928   -0.7887432 
H     9.2631949   -1.3870640   -3.1978601 
N     7.1538628   -0.2254521   -4.5610460 
C     5.8250750    0.3158951   -4.5595166 
H     7.8349791   -0.3129785   -5.3495976 
H     5.3427971    0.7780790   -5.4208833 
