48
Energy =
C    -0.2033668    0.6716081    2.4584254 
C     0.6260019    1.6956707    2.1315497 
C     0.1080265   -0.6028375    2.0993353 
C     1.2507111   -0.8441602    1.4189525 
C     2.0831705    0.1748230    1.0914546 
C     1.7716950    1.4553534    1.4369184 
H     0.3645454    2.7058676    2.4336786 
H     1.4904900   -1.8642392    1.1401706 
H     2.9987271   -0.0452650    0.5509927 
H    -1.1160026    0.8745274    3.0083590 
C     2.6951720    2.5947214    1.0528518 
C     2.2368361    3.3837931   -0.2097912 
H     3.7203066    2.1995316    0.8859303 
H     2.8021675    3.2853991    1.9175560 
C     1.8008629    2.4872332   -1.3715976 
O    -0.7237611   -1.6807476    2.4201174 
H    -1.5671738   -1.4153047    2.9171362 
O     0.5349800    2.6240321   -1.9291954 
N     1.1947726    4.3654507    0.1476614 
H     3.1090651    3.9506506   -0.6179066 
H     0.2863216    3.8815780    0.3458162 
H     1.4676561    4.9304893    0.9849068 
N     2.6069591    1.3875327   -1.8189108 
C     4.0230407    1.6196501   -2.1693130 
H     2.1440700    0.4535524   -1.8386832 
C     4.2098254    2.8406372   -3.0612798 
O     4.9889150    3.8907263   -2.5949283 
O     3.6001650    2.9518317   -4.3067809 
H     2.9432393    2.2006552   -4.4571889 
C     4.6189085    0.3517973   -2.8194770 
H     4.6017375    1.8324182   -1.2448682 
C     4.7391608   -0.7781729   -1.8181210 
H     5.6367353    0.5787743   -3.2127684 
H     4.0100885    0.0469678   -3.6967075 
C     3.9145258   -1.8292033   -1.6657263 
C     2.8105892   -2.1867240   -2.3728550 
C     2.1221092   -3.2980116   -1.9835756 
C     2.5424799   -4.0296878   -0.9079363 
C     3.6554003   -3.6559261   -0.2157801 
C     4.3205229   -2.5539487   -0.6207304 
H     2.4708115   -1.6092904   -3.2272624 
H     1.2327412   -3.6035235   -2.5309303 
H     1.9863876   -4.9132009   -0.6026528 
H     4.0006735   -4.2239863    0.6416890 
N     5.4765976   -1.9846803   -0.0243966 
C     5.6798183   -0.8376552   -0.8588509 
H     6.0221931   -2.3090302    0.8072924 
H     6.4740969   -0.1072327   -0.7179669 
