48
Energy =
C    -3.8658793   -1.5898721   -0.5570467 
C    -2.5401947   -1.4327790   -0.3121012 
C    -4.7617794   -0.6867396   -0.0760804 
C    -4.3237659    0.3689952    0.6467851 
C    -2.9994888    0.5308987    0.8947652 
C    -2.0991699   -0.3724092    0.4195062 
H    -1.8363830   -2.1604971   -0.7067567 
H    -5.0474908    1.0835770    1.0231114 
H    -2.6655933    1.3875734    1.4749206 
H    -4.2075942   -2.4386822   -1.1393846 
C    -0.6217538   -0.1802981    0.6800466 
C    -0.0013180    0.8876523   -0.2505747 
H    -0.0751280   -1.1430827    0.5752940 
H    -0.4858375    0.1333802    1.7399680 
C     1.4208318    1.2056043    0.1697941 
O    -6.1342389   -0.8190222   -0.3111715 
H    -6.3818492   -1.6362652   -0.8579805 
O     1.6849414    2.2985818    0.6922528 
N    -0.0484704    0.4539391   -1.6566036 
H    -0.5700144    1.8428477   -0.1433614 
H     0.3138514   -0.5233808   -1.7370832 
H    -1.0427770    0.4503909   -1.9829811 
N     2.5006592    0.2938011   -0.0973868 
C     3.7599602    0.9597714   -0.4724407 
H     2.3783090   -0.7422020   -0.0535741 
C     3.7172118    2.4328382   -0.0572657 
O     4.7463008    3.2949063   -0.4245965 
O     2.7602635    2.8604065    0.6072363 
H     2.4234667    2.3145007    1.3725540 
C     3.9709614    0.8129206   -1.9919512 
H     4.6035843    0.4982859    0.0842758 
C     4.2083910   -0.6264480   -2.3853415 
H     4.8367362    1.4286172   -2.3241810 
H     3.0746134    1.2104090   -2.5211902 
C     5.3401595   -1.3279287   -2.2205068 
C     6.5347879   -0.9431140   -1.7027571 
C     7.5413313   -1.8619093   -1.6447192 
C     7.3407785   -3.1360488   -2.1001844 
C     6.1321182   -3.4989211   -2.6169401 
C     5.1523981   -2.5718532   -2.6635462 
H     6.6952515    0.0693516   -1.3431360 
H     8.5082448   -1.5790111   -1.2351109 
H     8.1482286   -3.8624470   -2.0510099 
H     5.9563638   -4.5047097   -2.9830123 
N     3.8308091   -2.7412108   -3.1574895 
C     3.2860306   -1.4331852   -2.9372544 
H     3.3805999   -3.5922721   -3.5655469 
H     2.2694004   -1.1387476   -3.1855249 
