48
Energy =
C     2.6042504   -1.2216742   -6.9465669 
C     2.5300583   -1.8788699   -5.7618397 
C     2.3732931    0.1153228   -7.0036259 
C     2.0661324    0.7869130   -5.8744662 
C     2.0075090    0.1438449   -4.6800132 
C     2.2356105   -1.2049177   -4.6087786 
H     2.7152379   -2.9496249   -5.7478361 
H     1.8519807    1.8464048   -5.9241102 
H     1.1168473    1.7659961   -2.1296148 
H     2.8450468   -1.7708874   -7.8505410 
C     2.1727430   -1.9680520   -3.2722520 
C     2.9508514   -1.6396489   -1.8667375 
H     2.4503209   -3.0170451   -3.5174063 
H     1.0832127   -2.0163012   -3.0502060 
C     2.1180024   -0.5726151   -1.0681502 
O     2.4448272    0.8200000   -8.2100070 
H     2.6507459    0.2392736   -9.0153798 
O     0.7670732   -0.7977752   -0.8080298 
N     2.6818937   -2.9573350   -1.1506725 
H     4.6476332   -0.8996942   -1.8525030 
H     1.7456960   -3.3742633   -1.3748425 
H     2.5539003   -2.8182339   -0.1197435 
N     2.7592781    0.5507432   -0.4049741 
C     3.2170475    1.6499631   -1.3245460 
H     2.0698836    0.9040253    0.3012661 
C     2.7664198    3.0428487   -0.8949941 
O     2.8492866    3.4293980    0.4367711 
O     2.3009295    3.9514338   -1.8369321 
H     2.0787369    4.8252676   -1.3745681 
C     2.9089741    1.3059128   -2.8538319 
H     4.3206890    1.7542316   -1.1737442 
C     3.9228114    0.1641392   -2.9318386 
H     3.3040173    2.1436067   -3.4801143 
H     1.2900833    0.9983844   -3.3489374 
C     4.8715532   -1.9711306   -0.5786388 
C     4.9086189   -2.3470561    0.7011773 
C     5.6666568   -3.4455652    0.9747390 
C     6.3721690   -4.1110970   -0.0050849 
C     6.3637616   -3.7126444   -1.3180525 
C     5.6329773   -2.6453226   -1.6860538 
H     4.3712673   -1.8013755    1.4705472 
H     5.7238141   -3.8009093    2.0004026 
H     6.9659268   -4.9776068    0.2740820 
H     6.9459577   -4.2454741   -2.0616424 
N     5.5845651   -2.0302525   -3.2228556 
C     4.8431749   -0.6734615   -3.8349666 
H     5.2815730   -2.8248086   -3.8319317 
H     4.9592244   -0.4094125   -4.8838830 
