48
Energy =
C     1.4167145    0.7644939    4.0621747 
C     1.2085824    0.7523197    2.7198569 
C     1.1470380   -0.3412785    4.8050105 
C     0.6740817   -1.4534954    4.1993061 
C     0.4679932   -1.4720701    2.8580784 
C     0.7329789   -0.3664918    2.1075485 
H     1.4468637    1.6368901    2.1321430 
H     0.4655600   -2.3301376    4.8028279 
H     0.0923090   -2.3791462    2.3924869 
H     1.8064802    1.6573837    4.5395425 
C     0.5055060   -0.3893731    0.6070012 
C     1.7903799   -0.6187944   -0.2338710 
H     0.0135479    0.5579942    0.2931063 
H    -0.2226114   -1.1919326    0.3543542 
C     2.6264324    0.6457998   -0.3919913 
O     1.3473424   -0.3614689    6.1888067 
H     1.7209026    0.5030168    6.5650973 
O     3.3121914    1.1706031    0.6990934 
N     2.5873212   -1.7431554    0.2851053 
H     1.4639089   -0.8863635   -1.2645812 
H     3.0369228   -1.4618872    1.1912043 
H     1.9672153   -2.5626957    0.4797708 
N     2.4112708    1.4964609   -1.5227520 
C     3.5997483    2.1516840   -2.1004017 
H     1.4512950    1.6068952   -1.9215317 
C     3.2319033    3.4133636   -2.8741943 
O     1.9824326    3.5254237   -3.4740898 
O     4.1609181    4.4316347   -3.0852209 
H     5.0367606    4.2552074   -2.6157638 
C     4.3901555    1.1501028   -2.9752880 
H     4.2614042    2.4981394   -1.2721498 
C     3.5204608    0.4276742   -3.9878049 
H     4.8966360    0.4228336   -2.3067609 
H     5.2074754    1.6780641   -3.5154135 
C     3.1408652   -0.8624199   -3.9589367 
C     3.4255420   -1.8404227   -3.0590182 
C     2.8973743   -3.0812953   -3.2585301 
C     2.1056761   -3.3288740   -4.3448005 
C     1.8363561   -2.3355678   -5.2381562 
C     2.3685237   -1.1150743   -5.0180196 
H     4.0464178   -1.6545931   -2.1882887 
H     3.1068749   -3.8759171   -2.5463038 
H     1.6895044   -4.3215075   -4.4967891 
H     1.2101945   -2.5146786   -6.1055419 
N     2.2053387    0.0456868   -5.8188437 
C     2.9831580    0.9995316   -5.0814699 
H     1.6673100    0.1691819   -6.7075179 
H     3.1000520    2.0473420   -5.3598328 
