48
Energy =
C     3.4516358   -3.4260233   -0.8717094 
C     2.4638933   -2.5449807   -1.1685724 
C     3.7787555   -3.6738559    0.4233725 
C     3.1020586   -3.0506296    1.4132354 
C     2.1090079   -2.1724982    1.1227302 
C     1.7984961   -1.8879326   -0.1749907 
H     2.2165771   -2.3650357   -2.2112820 
H     3.3662285   -3.2623517    2.4439700 
H     1.5813707   -1.7005515    1.9442227 
H     3.9839661   -3.9266884   -1.6735476 
C     0.6787491   -0.9189497   -0.5326990 
C     0.6491738    0.3911968    0.2968489 
H    -0.2883273   -1.4502230   -0.3970675 
H     0.7425532   -0.6431329   -1.6086668 
C     1.9835491    1.1263575    0.3086439 
O     4.8052142   -4.5609547    0.7630449 
H     5.2676418   -4.9826965   -0.0353153 
O     2.8067730    1.0072001    1.4238357 
N    -0.4498424    1.2520100   -0.1776684 
H     0.4553683    0.1474277    1.3668139 
H    -0.4095496    1.3682547   -1.2180313 
H    -1.3693097    0.8006878    0.0433978 
N     2.3365530    2.0715905   -0.7118864 
C     3.7116955    2.0055825   -1.2377716 
H     1.5966251    2.6896413   -1.1167966 
C     4.1356888    3.3380363   -1.8471508 
O     3.2500247    4.0258748   -2.6688719 
O     5.4306113    3.8372948   -1.6995642 
H     6.0128885    3.2433286   -1.1280092 
C     3.7933317    0.8792796   -2.2838158 
H     4.4125714    1.8033105   -0.3936661 
C     5.2268816    0.5185040   -2.5938599 
H     3.2548336    1.1832564   -3.2108698 
H     3.2759253   -0.0218090   -1.9052877 
C     6.0287848   -0.2624947   -1.8547395 
C     5.7763800   -0.9090379   -0.6883914 
C     6.7736063   -1.6534186   -0.1315230 
C     7.9982982   -1.7289106   -0.7356905 
C     8.2334762   -1.0569665   -1.8991609 
C     7.2275334   -0.3327252   -2.4334585 
H     4.8108272   -0.8339698   -0.1961245 
H     6.5935066   -2.1863440    0.8004030 
H     8.7892531   -2.3209740   -0.2820393 
H     9.2021843   -1.0975740   -2.3854776 
N     7.2642078    0.4498637   -3.6189688 
C     5.9293583    0.9758967   -3.6444988 
H     8.0507429    0.5954043   -4.2929189 
H     5.5531890    1.6760791   -4.3898040 
