48
Energy =
C     0.7800540   -2.6050859    3.4302735 
C     0.3924164   -1.6734170    2.5228110 
C     1.8135884   -2.3484348    4.2745029 
C     2.4468827   -1.1565868    4.2101769 
C     2.0609875   -0.2204538    3.3074279 
C     1.0452889   -0.4783758    2.4362913 
H    -0.4523045   -1.8912516    1.8758173 
H     3.2645612   -0.9583959    4.8942525 
H     2.5709388    0.7379860    3.2941792 
H     0.2561484   -3.5533080    3.4840155 
C     0.5933146    0.5773594    1.4363293 
C     1.3021966    0.5655025    0.0468429 
H     0.7167236    1.5847788    1.8929518 
H    -0.5009782    0.4685551    1.2691204 
C     2.7341981    1.0889403    0.0592498 
O     2.2358310   -3.2860360    5.2227316 
H     1.7177532   -4.1572936    5.1997683 
O     3.6109109    0.8052867    1.0981883 
N     1.2279306   -0.7443767   -0.6306938 
H     0.7432554    1.3125536   -0.5656755 
H     0.6753724   -1.4445910   -0.0917843 
H     0.7277477   -0.6331430   -1.5426865 
N     3.2125623    1.8894927   -1.0283961 
C     4.3986216    1.3889369   -1.7484058 
H     2.7044019    2.7617177   -1.2964827 
C     5.2703064    2.5352099   -2.2508268 
O     5.7205416    2.5564175   -3.5653429 
O     5.6515886    3.5744475   -1.4047618 
H     5.3309331    3.4221594   -0.4580572 
C     3.9647943    0.3866927   -2.8494025 
H     5.0720047    0.8462837   -1.0428562 
C     2.8163290    0.8506110   -3.7354463 
H     3.6695034   -0.5460082   -2.3237916 
H     4.8330932    0.1271105   -3.4953338 
C     1.8511831    0.0680756   -4.2541477 
C     1.6369262   -1.2675325   -4.1112773 
C     0.5769126   -1.8295618   -4.7595639 
C    -0.2405491   -1.0621935   -5.5409805 
C    -0.0010791    0.2717400   -5.6814890 
C     1.0502038    0.8060819   -5.0255917 
H     2.2859764   -1.8880724   -3.5017184 
H     0.3855165   -2.8955091   -4.6600371 
H    -1.0795840   -1.5188896   -6.0602175 
H    -0.6319858    0.8926232   -6.3087069 
N     1.4836653    2.1557806   -5.0649210 
C     2.6436174    2.0964821   -4.2228391 
H     1.0639500    2.9732081   -5.5654878 
H     3.3110696    2.9386832   -4.0532390 
