48
 energy: -9.074471961328 gnorm: 0.000727068516 xtb: 6.6.0 (2ccbbd7)
C            1.45388594479593        5.64545715432720        0.82228895873308
C            1.45501981277399        4.27262167625757        0.77794986368830
C            0.25853139798594        6.34625768116523        0.98314343198092
C           -0.92520757880552        5.61560989570653        1.08918944781171
C           -0.91393458824562        4.24159937452474        1.03578645532787
C            0.27799828559361        3.54767013007915        0.88564441462037
H            2.37809020065911        3.74362839851126        0.61918785579767
H           -1.84733407304202        6.15631770075087        1.20610118691132
H           -1.83659608192510        3.69175326088935        1.10740007785908
H            2.37513981806195        6.18923933452353        0.71132864097482
C            0.30053733337587        2.05089046464205        0.80668217747590
C            0.43779970433146        1.51254589331587       -0.62370071964363
H           -0.60703707281210        1.64625847562273        1.26557355810207
H            1.12697191315409        1.67180601604318        1.41423183178864
C            1.69931318887850        2.00574054220864       -1.29969267467376
O            0.21931049908549        7.72666962872953        1.03463960137176
H            1.12191878656589        8.09231245600665        0.91345059464290
O            1.60460121982077        2.65799988079025       -2.32035439229209
N            0.36988855249684        0.05720816415936       -0.67588939942993
H           -0.40064642020317        1.89921377821972       -1.22489016465018
H            1.16921697130488       -0.34287469249395       -0.20188874838265
H           -0.46206185431160       -0.28097139936264       -0.20788479223692
N            2.90520196963237        1.70809509767054       -0.70749142964861
C            4.20942039513117        2.03852021919507       -1.30347553770432
H            2.93826289921698        1.14537052222035        0.14386734613308
C            4.54773615556151        3.47989641429846       -1.05560723123267
O            5.79725561584225        3.79007249778213       -0.60008187670807
O            3.57832117684739        4.40946880299641       -1.33493489062167
H            2.81427119714212        3.91731406329300       -1.72398931581221
C            4.25304933206470        1.69088538047085       -2.79844227833372
H            4.96746862538183        1.42742224260878       -0.79087355914131
C            5.60310387011140        1.34441203250449       -3.34872932534849
H            3.81907112204857        2.51627614042678       -3.37182044458815
H            3.58187061095116        0.84138473782662       -2.96737801126307
C            6.90329687952484        1.77237835696922       -2.92655095784326
C            7.37112031172332        2.61984660105560       -1.91083972434236
C            8.71077861235536        2.82518220317756       -1.76868337744959
C            9.63431726571257        2.20150281312710       -2.62203471722381
C            9.21394180614908        1.37363452288962       -3.62581838708454
C            7.83912381347488        1.15534123739210       -3.78388722393794
H            6.57340557833646        3.22069156073355       -1.19769047165354
H            9.06399848117925        3.48467445666483       -0.99348950671089
H           10.68740112332840        2.38448318454953       -2.48676623113553
H            9.90991146092612        0.89442781626312       -4.29068448886637
N            7.13375624836352        0.39474875498614       -4.69635847867753
C            5.79415553469087        0.51993333345241       -4.43058562385439
H            7.55472900145446       -0.15162458211752       -5.45005658556330
H            5.01038458194611        0.03762821369899       -4.99219749163887
