48
Energy =
C    -0.4673851    5.3537016   -0.9824404 
C     0.1701551    4.3234880   -1.5963846 
C    -1.8012179    5.2790739   -0.7326068 
C    -2.4879147    4.1724112   -1.0960758 
C    -1.8546275    3.1386242   -1.7061136 
C    -0.5183936    3.2069232   -1.9603020 
H     1.2434766    4.3847327   -1.7791599 
H    -3.5513552    4.1241503   -0.8894400 
H    -2.4250142    2.2574073   -1.9862991 
H     0.0928701    6.2339719   -0.6857727 
C     0.1908127    2.0506981   -2.6411421 
C     0.9065789    1.0633272   -1.6775011 
H     0.9334906    2.4575439   -3.3592525 
H    -0.5353232    1.4779829   -3.2580415 
C     2.2830857    1.5518261   -1.2449264 
O    -2.4888352    6.3229945   -0.1053674 
H    -1.9011833    7.1078617    0.1535315 
O     2.4278577    2.6817459   -0.7553930 
N     0.0689965    0.7181643   -0.5185345 
H     1.0887403    0.1283402   -2.2524382 
H     0.0012110    1.5544844    0.1104615 
H    -0.8974808    0.4809667   -0.8378934 
N     3.4582895    0.7723909   -1.5293627 
C     4.6474706    1.5679721   -1.8827354 
H     3.4240778   -0.2703243   -1.5511893 
C     4.3971924    3.0476335   -1.5915421 
O     5.2499637    4.0256046   -2.0983601 
O     3.4126792    3.3784860   -0.9121565 
H     3.1845674    2.8196013   -0.1118459 
C     5.0445111    1.2967337   -3.3500193 
H     5.4876549    1.2674448   -1.2218296 
C     3.9494398    1.6673041   -4.3300426 
H     5.3172202    0.2267534   -3.4645071 
H     5.9632464    1.8764830   -3.5939248 
C     3.0113672    0.8539263   -4.8427586 
C     2.7970066   -0.4714241   -4.6366720 
C     1.7422072   -1.0636923   -5.2661479 
C     0.9264045   -0.3323047   -6.0838385 
C     1.1614649    0.9960095   -6.2784265 
C     2.2135458    1.5584089   -5.6480316 
H     3.4362632   -1.0540175   -3.9816324 
H     1.5476277   -2.1226582   -5.1145620 
H     0.0862628   -0.8114757   -6.5800647 
H     0.5207994    1.5918197   -6.9196194 
N     2.6083430    2.9219991   -5.6908877 
C     3.7362872    2.9083597   -4.8037624 
H     2.1865776    3.7186913   -6.2215086 
H     4.3236205    3.7861448   -4.5335629 
