48
Energy =
C    -1.2669165    5.5118331   -2.1803828 
C    -1.1660257    4.2443151   -1.7056956 
C    -0.2189813    6.0835884   -2.8317880 
C     0.9238821    5.3819208   -3.0027723 
C     1.0264606    4.1124629   -2.5372046 
C    -0.0163299    3.5341241   -1.8804488 
H    -2.0109465    3.8046520   -1.1827710 
H     1.7592825    5.8509404   -3.5107263 
H     1.9559414    3.5707967   -2.6770881 
H    -2.1872101    6.0673512   -2.0357722 
C     0.0988599    2.1195849   -1.3431837 
C     0.7477993    2.0251103    0.0614196 
H     0.6802955    1.4975821   -2.0572529 
H    -0.9105429    1.6553244   -1.2988980 
C     2.2463089    2.2953750    0.0355533 
O    -0.2925330    7.3861902   -3.3363868 
H    -1.1737511    7.8508530   -3.1478160 
O     2.6803410    3.4452346   -0.1259522 
N     0.0566222    2.8809572    1.0389941 
H     0.6360683    0.9714844    0.4019174 
H     0.2526247    3.8874044    0.8172275 
H    -0.9768220    2.7364867    0.9724325 
N     3.1789249    1.2022433   -0.0133197 
C     4.2815142    1.3985711   -0.9677999 
H     3.0389384    0.3346466    0.5518879 
C     4.4360791    2.8925244   -1.2787704 
O     5.3739529    3.3330370   -2.2054585 
O     3.7135823    3.7220677   -0.7046048 
H     3.5739344    3.6487281    0.2828479 
C     3.9773862    0.5451002   -2.2164311 
H     5.2332798    1.0685500   -0.4979055 
C     5.1454540    0.4769808   -3.1770332 
H     3.0672468    0.9312771   -2.7203962 
H     3.7335069   -0.4909146   -1.8935684 
C     5.2853132    1.1363294   -4.3400659 
C     4.4532079    2.0198226   -4.9515133 
C     4.8384954    2.5539108   -6.1457428 
C     6.0347641    2.2019554   -6.7063184 
C     6.8549861    1.3153512   -6.0746283 
C     6.4527600    0.8010358   -4.8934396 
H     3.5102089    2.3156998   -4.5049364 
H     4.1944927    3.2699662   -6.6503463 
H     6.3362835    2.6361288   -7.6561768 
H     7.8094530    1.0299618   -6.5035563 
N     7.1547844   -0.1288778   -4.0801898 
C     6.2398925   -0.2815020   -2.9876338 
H     8.0826965   -0.5827045   -4.2430865 
H     6.4122944   -0.9239501   -2.1276465 
