48
Energy =
C     0.8961023   -4.5865007    1.6860392 
C     1.5031775   -3.4294554    1.3197570 
C    -0.3629305   -4.8644245    1.2539226 
C    -1.0056777   -3.9816833    0.4560125 
C    -0.4034264   -2.8229766    0.0864364 
C     0.8547221   -2.5373561    0.5209155 
H     2.5119486   -3.2255130    1.6676701 
H    -2.0081509   -4.2166042    0.1154834 
H    -0.9342914   -2.1285537   -0.5601269 
H     1.4213245   -5.2895967    2.3232366 
C     1.5325986   -1.2546647    0.0918980 
C     2.1291932   -1.3689913   -1.3287027 
H     2.3235123   -0.9661262    0.8180683 
H     0.7840255   -0.4296508    0.1145333 
C     2.5639904   -0.0058582   -1.8497759 
O    -1.0167497   -6.0477207    1.6129084 
H    -0.4681302   -6.6555136    2.2110889 
O     1.7330132    0.6642677   -2.7389180 
N     3.2357746   -2.3483259   -1.3641176 
H     1.3223735   -1.6939953   -2.0315723 
H     3.7936979   -2.3194907   -0.4781913 
H     2.8267618   -3.3127046   -1.4149414 
N     3.7467368    0.6591764   -1.3559116 
C     4.6769590    1.0440460   -2.4462583 
H     4.2405552    0.0104797   -0.7030700 
C     4.1936239    2.2836506   -3.2140852 
O     4.4573916    2.4059503   -4.5731467 
O     3.6194040    3.3728734   -2.5582336 
H     3.3724593    3.1397629   -1.6084588 
C     4.9984682   -0.1744406   -3.3646099 
H     5.6217139    1.3842097   -1.9662979 
C     6.3253778   -0.0307816   -4.0837224 
H     4.1653752   -0.3275079   -4.0846427 
H     5.0353739   -1.1080161   -2.7598816 
C     6.5314207    0.1538765   -5.4006877 
C     5.6414662    0.2745765   -6.4208317 
C     6.1219186    0.4512721   -7.6849267 
C     7.4689773    0.5002041   -7.9118743 
C     8.3445559    0.3750006   -6.8752028 
C     7.8454447    0.2043017   -5.6328829 
H     4.5697459    0.2515425   -6.2494385 
H     5.4278684    0.5614504   -8.5149931 
H     7.8428999    0.6444270   -8.9225294 
H     9.4162779    0.4130855   -7.0382362 
N     8.5831232    0.0478059   -4.4291907 
C     7.5242064   -0.1005774   -3.4762025 
H     9.6190205    0.0377692   -4.2846693 
H     7.6775558   -0.2569894   -2.4109171 
