48
 energy: -9.075919781154 gnorm: 0.000464580324 xtb: 6.6.0 (2ccbbd7)
C            0.21402822107936        1.16965723607535       -5.04170866141945
C            0.65046144867307        0.31291594697997       -4.06026972074631
C           -1.14804839710637        1.42047714212036       -5.20834319645779
C           -2.04530637633112        0.78423438222350       -4.35057665032658
C           -1.59855226212369       -0.06569699411903       -3.36653680637822
C           -0.24387665003847       -0.31855802497714       -3.20877319488138
H            1.70584822961567        0.14879406095562       -3.92622358356966
H           -3.09503564091810        0.98082861307327       -4.47585091299797
H           -2.30280260868545       -0.54366833263553       -2.70761934655112
H            0.92432492590087        1.66696888185123       -5.67788114751747
C            0.25312677372446       -1.21845765046160       -2.12041841028737
C            0.66536158966276       -0.46725820405324       -0.84469674541070
H            1.10413526662539       -1.79345372549781       -2.49994542840053
H           -0.51934692127007       -1.95563991567785       -1.87969772092520
C            1.75106480308775        0.54380226028059       -1.13497681334135
O           -1.62175267160182        2.27353169025883       -6.18693127457698
H           -0.87024627057131        2.66460337326247       -6.68264879632901
O            1.46324563078981        1.72256706234978       -1.17635164865353
N           -0.45643763670364        0.21311699807009       -0.21274283495043
H            1.06176369225656       -1.18595284221981       -0.10955673722071
H           -0.57161873241312        1.11740909432375       -0.66328930367211
H           -1.31614929257108       -0.31343689583664       -0.31509188668832
N            3.01781956433963        0.06682196608582       -1.38658383196886
C            4.11119814779937        0.94457706941332       -1.79467994184308
H            3.19264927165636       -0.93229425710508       -1.50387500264597
C            3.94628502137425        1.32496838391662       -3.24327090516264
O            4.77378614433303        0.79918036930882       -4.20540973839868
O            2.92153896721592        2.20192949105435       -3.52644543376025
H            2.32677050660099        2.21086661898523       -2.74119871778119
C            5.47319292906128        0.31021105695565       -1.48035394194685
H            4.00899242229792        1.85976672313017       -1.19340966488581
C            6.62351481006049        1.26629556976571       -1.47521213161432
H            5.66551863055730       -0.48659633634181       -2.20502823633717
H            5.41760419203305       -0.18139134408145       -0.50353113975287
C            7.18511589124166        1.92208883395973       -2.60809926485024
C            6.83074266511704        1.92440975267363       -3.95943335270709
C            7.56125938063480        2.66588608635518       -4.83834415398213
C            8.66616337694222        3.41609567573091       -4.39902423752399
C            9.03246115492574        3.43384278650209       -3.07927160710521
C            8.28400057204185        2.68105531803406       -2.16393731396001
H            5.78387767355845        1.31744485332821       -4.18447369166314
H            7.27752180700344        2.68505430810064       -5.87713471702234
H            9.22801783385267        3.99323705558231       -5.11449006540156
H            9.87232569662389        4.00999964539858       -2.73485630912850
N            8.38000785251899        2.49494068622780       -0.79571639288201
C            7.37772661373578        1.64490726112766       -0.39104304120639
H            9.08514406494057        2.93076708422760       -0.19856523181207
H            7.22035609181376        1.31904877396021        0.62437765409387
