48
Energy =
C     5.1419237    1.5046965    5.2894695 
C     4.7125645    1.0371096    4.0900481 
C     4.2464410    1.9610356    6.2054527 
C     2.9259215    1.9462441    5.9138811 
C     2.4907189    1.4800085    4.7159142 
C     3.3831449    1.0191227    3.7968730 
H     5.4400179    0.6765459    3.3671630 
H     2.2222969    2.3139647    6.6527971 
H     1.4255497    1.4810292    4.5002477 
H     6.2030324    1.5133613    5.5138770 
C     2.9079270    0.5140334    2.4523090 
C     3.1118060    1.5542730    1.3229551 
H     1.8374653    0.2113468    2.4955739 
H     3.4670525   -0.4173179    2.2057295 
C     2.7977588    0.9681343   -0.0544151 
O     4.6552660    2.4508538    7.4501072 
H     5.6589934    2.4269833    7.5934410 
O     2.4057707   -0.3601141   -0.1834098 
N     2.2994844    2.7573450    1.5737804 
H     4.1869561    1.8404822    1.2988319 
H     1.3011635    2.4865976    1.7446529 
H     2.6422521    3.2452198    2.4354826 
N     2.8039063    1.7903964   -1.2320474 
C     4.1782053    2.0704187   -1.7176697 
H     2.2500706    2.6524812   -1.0226028 
C     4.3317362    3.4967915   -2.2582856 
O     4.8555614    3.7263499   -3.5233982 
O     4.0552397    4.6024722   -1.4534839 
H     3.7697713    4.3347432   -0.5229037 
C     4.5831979    0.9749033   -2.7357365 
H     4.9203741    2.0250271   -0.8893850 
C     3.6011760    0.8184023   -3.8855368 
H     4.6360120    0.0010621   -2.2002670 
H     5.6085887    1.1720611   -3.1124094 
C     3.7763745    1.1710465   -5.1729755 
C     4.8357372    1.7616266   -5.7861430 
C     4.7608476    2.0038974   -7.1266042 
C     3.6443649    1.6501543   -7.8310701 
C     2.5953989    1.0528956   -7.1991182 
C     2.6909674    0.8281204   -5.8718865 
H     5.7219375    2.0539663   -5.2327574 
H     5.5917432    2.4868831   -7.6353978 
H     3.5913669    1.8482489   -8.8987106 
H     1.7025308    0.7636680   -7.7428669 
N     1.7224259    0.2079296   -5.0403220 
C     2.3921008    0.2368550   -3.7730902 
H     0.7803822   -0.1744512   -5.2850841 
H     1.9801743   -0.1676696   -2.8493524 
