48
Energy =
C     2.3813375    0.4924258   -9.4151903 
C     2.9539292    0.3424691   -8.1943291 
C     1.6776611   -0.5302055   -9.9705537 
C     1.5524329   -1.6975321   -9.2991418 
C     2.1228116   -1.8532920   -8.0777122 
C     2.8303833   -0.8336409   -7.5190750 
H     3.5120597    1.1706292   -7.7641094 
H     0.9890040   -2.5052701   -9.7534046 
H     2.0103680   -2.7987921   -7.5526577 
H     2.4877954    1.4326073   -9.9454962 
C     3.4492193   -0.9999906   -6.1497927 
C     2.4052218   -0.8590782   -5.0148838 
H     4.2790291   -0.2715342   -5.9997846 
H     3.9329108   -2.0033849   -6.0926847 
C     3.0131415   -1.2416333   -3.6718580 
O     1.0726367   -0.4080751  -11.2256010 
H     1.2201198    0.4922511  -11.6690637 
O     3.4965159   -2.5389269   -3.5452350 
N     1.8280133    0.4984461   -5.0040254 
H     1.5892962   -1.6039359   -5.1701376 
H     2.5869791    1.2180871   -5.1023297 
H     1.2029156    0.6177708   -5.8345596 
N     2.6227513   -0.5565177   -2.4737701 
C     3.5726429    0.3927889   -1.8561074 
H     1.6615179   -0.7107374   -2.0996106 
C     3.9168405    1.5628410   -2.7738291 
O     3.3032800    2.7938358   -2.5545703 
O     4.7766338    1.4353484   -3.8730266 
H     5.1895237    0.5153876   -3.9565309 
C     4.8238784   -0.3412225   -1.3202446 
H     3.0626221    0.8602185   -0.9848703 
C     4.4842568   -1.2111267   -0.1310583 
H     5.6066443    0.3920165   -1.0263182 
H     5.2801195   -0.9663487   -2.1179296 
C     4.3294254   -0.8088510    1.1397938 
C     4.4554106    0.4295253    1.6820381 
C     4.2357313    0.5763300    3.0204464 
C     3.8958148   -0.5043120    3.7873092 
C     3.7727791   -1.7381170    3.2196652 
C     3.9965964   -1.8573718    1.8940988 
H     4.7222403    1.2885549    1.0734400 
H     4.3305258    1.5579886    3.4789898 
H     3.7214141   -0.3796301    4.8534064 
H     3.5011645   -2.6058502    3.8114325 
N     3.9117042   -3.0392675    1.1113809 
C     4.2362652   -2.5307223   -0.1897479 
H     3.6763506   -4.0173875    1.3963847 
H     4.2639863   -3.1310996   -1.0968599 
