48
Energy =
C     0.1174322    4.1975052    4.5535918 
C     0.3248767    3.5791183    3.3634831 
C    -0.3280126    3.4875139    5.6246052 
C    -0.5624772    2.1616851    5.4966359 
C    -0.3570342    1.5381504    4.3090785 
C     0.0848697    2.2450645    3.2330866 
H     0.6858318    4.1594609    2.5175786 
H    -0.9153990    1.6057459    6.3581974 
H    -0.5469402    0.4709724    4.2270215 
H     0.3102845    5.2607922    4.6466006 
C     0.3328134    1.5468072    1.9146319 
C     1.6650279    0.7612894    1.9146188 
H     0.3257146    2.2798517    1.0750329 
H    -0.5113403    0.8483636    1.7158395 
C     1.8004049   -0.0705937    0.6521284 
O    -0.5506143    4.0939100    6.8653669 
H    -0.3559821    5.0891089    6.8778854 
O     1.6229224   -1.4463653    0.7171974 
N     2.8119319    1.6744197    2.0778872 
H     1.6562865    0.0239292    2.7537293 
H     2.6795520    2.5319979    1.4879934 
H     2.8470147    2.0037932    3.0719670 
N     1.8004605    0.5563653   -0.6334175 
C     3.0847860    1.0811754   -1.1308656 
H     0.9052140    0.6197041   -1.1682155 
C     2.9602000    2.5566510   -1.4927546 
O     1.7265008    3.1940354   -1.4256057 
O     4.0765881    3.3020877   -1.8704432 
H     4.9190378    2.7458614   -1.8867265 
C     3.5477972    0.2194114   -2.3403567 
H     3.8003222    1.0943049   -0.3184591 
C     4.8577467   -0.5859817   -2.3395791 
H     3.5657635    0.8568351   -3.2549305 
H     2.7418655   -0.5211693   -2.5550702 
C     5.9067049   -0.7460830   -1.4722236 
C     6.1850805   -0.2322187   -0.2337838 
C     7.3425526   -0.5897302    0.3921405 
C     8.2163754   -1.4461873   -0.2027655 
C     7.9409614   -1.9537507   -1.4298822 
C     6.7912594   -1.5908347   -2.0350484 
H     5.5568363    0.4423593    0.3049354 
H     7.5701341   -0.1891484    1.3779605 
H     9.1358782   -1.7253727    0.3064196 
H     8.6268959   -2.6381610   -1.9182801 
N     6.3632606   -2.0273644   -3.3090331 
C     5.1223508   -1.3397291   -3.4277739 
H     6.8324764   -2.6761543   -3.9827359 
H     4.4739007   -1.4212859   -4.2989101 
