48
Energy =
C     4.2608316   -3.5404086    4.0138897 
C     4.3572109   -2.8600559    2.8439154 
C     3.3394854   -3.1732371    4.9442581 
C     2.5200458   -2.1261966    4.6964180 
C     2.6118916   -1.4421052    3.5278841 
C     3.5355317   -1.8030341    2.5954428 
H     5.0960922   -3.1681591    2.1089809 
H     1.7891527   -1.8439947    5.4462705 
H     1.9426953   -0.6045828    3.3453445 
H     4.9217877   -4.3793457    4.2022642 
C     3.6223597   -1.0546719    1.2843470 
C     2.5496207   -1.5380519    0.2789286 
H     4.6418802   -1.1510434    0.8533381 
H     3.4878796    0.0353063    1.4812504 
C     2.3915203   -0.5650386   -0.8831742 
O     3.2123578   -3.8546982    6.1591840 
H     3.8682149   -4.6198523    6.2722580 
O     1.4707697    0.4661182   -0.7575401 
N     2.8202444   -2.9158926   -0.1747911 
H     1.5532630   -1.5100667    0.7839925 
H     3.8441671   -3.0604235   -0.3318453 
H     2.5455240   -3.5808428    0.5871392 
N     3.0317478   -0.7426786   -2.1601042 
C     4.4996268   -0.5580349   -2.1057229 
H     2.8018531   -1.7152394   -2.4655530 
C     4.9439886    0.7458440   -1.4409150 
O     6.1353145    0.7503621   -0.7287433 
O     4.2606859    1.9490181   -1.5997238 
H     3.3689791    1.8114770   -2.0591509 
C     5.0854537   -0.6710868   -3.5303023 
H     4.9567531   -1.3750026   -1.5060025 
C     4.5294594    0.3748748   -4.4769916 
H     4.8937991   -1.6889019   -3.9314690 
H     6.1938986   -0.5672618   -3.4831294 
C     3.4680001    0.2492287   -5.2913787 
C     2.6515737   -0.8152376   -5.5056779 
C     1.6245358   -0.6773510   -6.3925705 
C     1.4297060    0.5082801   -7.0450444 
C     2.2608927    1.5636401   -6.8144081 
C     3.2704697    1.4023193   -5.9337528 
H     2.7979869   -1.7565106   -4.9869649 
H     0.9540177   -1.5131627   -6.5780067 
H     0.6060034    0.6117196   -7.7471653 
H     2.1174504    2.5129316   -7.3194518 
N     4.2333800    2.3720835   -5.5479890 
C     5.0079294    1.6271314   -4.5982707 
H     4.3507664    3.3587166   -5.8761117 
H     5.8323065    2.0391909   -4.0158048 
