48
Energy =
C     3.1492955    2.5314568    3.3103317 
C     2.7496016    3.4325504    2.3784682 
C     2.3149921    1.5284768    3.6929800 
C     1.0838318    1.4358785    3.1410818 
C     0.6795747    2.3326583    2.2062872 
C     1.5112753    3.3392743    1.8198461 
H     3.4348643    4.2198961    2.0731690 
H     0.4288355    0.6296217    3.4529155 
H    -0.3075591    2.2298035    1.7625284 
H     4.1418606    2.6118523    3.7411699 
C     1.0866200    4.3157987    0.7439213 
C     1.8187274    4.0491504   -0.5922660 
H     1.3121405    5.3474859    1.0932903 
H    -0.0143292    4.2695736    0.5820900 
C     1.5386142    2.6501519   -1.1295838 
O     2.6989545    0.5779125    4.6437936 
H     3.6319358    0.7230899    5.0150206 
O     0.2695902    2.3657232   -1.6235890 
N     1.4446814    5.0718637   -1.5814311 
H     2.9132062    4.1266150   -0.4187632 
H     0.4080434    5.0525195   -1.7398577 
H     1.6951684    6.0217038   -1.2193196 
N     2.3639185    1.5413961   -0.7392414 
C     3.6494841    1.3147085   -1.4278648 
H     2.0338849    0.9313686    0.0411183 
C     4.7414292    2.2472955   -0.9020210 
O     5.1553551    3.3420034   -1.6543074 
O     5.2862550    2.0730045    0.3699673 
H     4.8584847    1.2962342    0.8535868 
C     3.4564118    1.3801367   -2.9618641 
H     3.9881330    0.2841740   -1.1766026 
C     4.6391677    0.7907044   -3.6988532 
H     3.2932381    2.4328440   -3.2880717 
H     2.5356580    0.8232275   -3.2450903 
C     4.8674250   -0.5104668   -3.9355840 
C     4.1187700   -1.5971588   -3.6156741 
C     4.5840076   -2.8302334   -3.9670063 
C     5.7775645   -2.9573045   -4.6225930 
C     6.5136318   -1.8515932   -4.9303448 
C     6.0307779   -0.6427040   -4.5742503 
H     3.1725230   -1.4977374   -3.0918457 
H     4.0034064   -3.7165463   -3.7232719 
H     6.1422747   -3.9436484   -4.8975993 
H     7.4642238   -1.9350465   -5.4458974 
N     6.6406977    0.6226537   -4.7855443 
C     5.6766792    1.4969879   -4.1819330 
H     7.5455148    0.8521839   -5.2566969 
H     5.7869116    2.5777568   -4.1027959 
