48
Energy =
C     0.6021091    4.3606433   -7.2624417 
C     0.8172096    3.2492877   -6.5141554 
C     1.6471509    5.1457183   -7.6366509 
C     2.9021382    4.8127050   -7.2593254 
C     3.1245265    3.7024847   -6.5104878 
C     2.0802894    2.9112847   -6.1351316 
H    -0.0301667    2.6331952   -6.2215704 
H     3.7258634    5.4493064   -7.5658377 
H     4.1444820    3.4579075   -6.2190326 
H    -0.4083118    4.6205747   -7.5599784 
C     2.3123930    1.6825743   -5.2837932 
C     1.9424549    1.9316891   -3.7996356 
H     3.3684336    1.3452899   -5.3779232 
H     1.6911108    0.8481322   -5.6808390 
C     1.9921377    0.6691495   -2.9388289 
O     1.4604618    6.2982166   -8.4055739 
H     0.4931253    6.4786569   -8.6520328 
O     0.8550165    0.3365667   -2.2156416 
N     2.7525354    3.0153627   -3.2120440 
H     0.8651539    2.2329262   -3.7605469 
H     3.6893320    3.1066748   -3.6698723 
H     2.2701253    3.9308748   -3.3743556 
N     3.0212765   -0.3328082   -3.0544117 
C     4.3067114    0.0614366   -2.4415610 
H     3.1220796   -0.6549975   -4.0417894 
C     5.1199499    0.9286235   -3.3802108 
O     6.4933242    0.8898859   -3.5847511 
O     5.8760221    2.0372450   -3.0032595 
H     5.6011157    2.3955758   -2.0964388 
C     5.0788469   -1.2199224   -2.0736625 
H     4.1329578    0.6512048   -1.5100716 
C     4.4699458   -1.8970430   -0.8675363 
H     6.1491721   -0.9848289   -1.8721010 
H     5.0819776   -1.9213259   -2.9369968 
C     4.7567080   -1.6540974    0.4206960 
C     5.6563891   -0.7950673    0.9657136 
C     5.7474109   -0.7289394    2.3252883 
C     4.9440924   -1.5097510    3.1102642 
C     4.0440920   -2.3607612    2.5399832 
C     3.9756754   -2.4107969    1.1931252 
H     6.2904499   -0.1697646    0.3437771 
H     6.4608071   -0.0501075    2.7866148 
H     5.0201068   -1.4496444    4.1931054 
H     3.3942348   -2.9821574    3.1466492 
N     3.1020867   -3.2080357    0.4064974 
C     3.4806940   -2.8049817   -0.9170120 
H     2.3836366   -3.9053190    0.7073404 
H     3.0014510   -3.1518857   -1.8296491 
