48
Energy =
C     3.4268997    3.9662488    4.1052908 
C     3.9963338    3.7454228    2.8937258 
C     2.2642840    4.6646198    4.1966312 
C     1.6795167    5.1397104    3.0741647 
C     2.2449140    4.9227655    1.8586857 
C     3.4082718    4.2215106    1.7611017 
H     4.9289517    3.1876723    2.8398203 
H     0.7524759    5.6965363    3.1666373 
H     1.7612140    5.3134886    0.9670838 
H     3.9055302    3.5832080    5.0004584 
C     4.0354889    3.9701057    0.4071003 
C     3.2706557    2.8877835   -0.4022130 
H     5.1000134    3.6613846    0.5210217 
H     4.0860112    4.9276587   -0.1576394 
C     3.6329895    2.9298147   -1.8793938 
O     1.6487205    4.9088696    5.4271757 
H     2.1519439    4.5294045    6.2224477 
O     2.6061822    3.0045588   -2.8126034 
N     3.5172936    1.5369953    0.1427990 
H     2.1766724    3.1095985   -0.3721319 
H     4.0660040    1.5533028    1.0348274 
H     2.6062859    1.0675441    0.3577966 
N     4.9608671    3.2550065   -2.3115069 
C     6.0369350    2.2975991   -2.0037927 
H     5.1361024    4.1801270   -2.7626041 
C     7.3149368    3.0258849   -1.6195651 
O     7.5107373    3.4260219   -0.3050326 
O     8.2504228    3.3981327   -2.5772472 
H     7.9157134    4.2266556   -3.0441119 
C     6.2227412    1.3654556   -3.2138499 
H     5.7736649    1.6832948   -1.1137542 
C     7.1141796    0.1938325   -2.8721733 
H     6.6493741    1.9346236   -4.0691903 
H     5.2316839    0.9940079   -3.5537488 
C     6.7412484   -0.9515838   -2.2816676 
C     5.5116900   -1.3610969   -1.8760541 
C     5.4005974   -2.5821735   -1.2784424 
C     6.5077921   -3.3635139   -1.0921699 
C     7.7335980   -2.9267372   -1.4999135 
C     7.8169722   -1.7170047   -2.0923368 
H     4.6341489   -0.7346650   -2.0104327 
H     4.4274636   -2.9328644   -0.9437580 
H     6.4119021   -4.3336010   -0.6112244 
H     8.6235188   -3.5284309   -1.3505388 
N     8.9909048   -1.0688517   -2.5618477 
C     8.4475464    0.1710940   -3.0391759 
H     9.9806994   -1.4057315   -2.5659546 
H     9.0376679    1.0039058   -3.4232379 
