48
Energy =
C    -3.9445650    0.7569144   -3.7994121 
C    -2.6054541    0.6617515   -3.6005350 
C    -4.6558137    1.7490023   -3.2001179 
C    -4.0209605    2.6393851   -2.4044436 
C    -2.6820681    2.5490471   -2.2017401 
C    -1.9649447    1.5605828   -2.8032676 
H    -2.0506234   -0.1395710   -4.0826874 
H    -4.6001395    3.4244024   -1.9306628 
H    -2.1924526    3.2712496   -1.5538693 
H    -4.4452532    0.0365327   -4.4372893 
C    -0.4759789    1.4408276   -2.5673118 
C    -0.1418573    0.3467208   -1.5274475 
H    -0.0477569    2.4158755   -2.2430900 
H     0.0204374    1.1980212   -3.5343973 
C     1.3532264    0.0874607   -1.4794172 
O    -6.0367562    1.8747532   -3.3829471 
H    -6.4371173    1.1707696   -3.9933549 
O     1.8257168   -1.0340041   -2.1389142 
N    -0.6681767    0.7072643   -0.1972902 
H    -0.5930376   -0.6220261   -1.8544384 
H    -0.4798004    1.7156920    0.0145756 
H    -1.7095524    0.5878864   -0.1948566 
N     2.2265808    1.1072720   -0.9456983 
C     3.7171163    1.0288059   -1.0020742 
H     1.9449890    1.2050612    0.0571934 
C     4.2533200    2.4422913   -1.2150971 
O     5.2526530    2.9275597   -0.3802457 
O     3.8051947    3.2484357   -2.2626396 
H     3.0654650    2.7991369   -2.7815913 
C     4.3484737    0.0985294   -2.0797098 
H     4.1188119    0.7816307   -0.0130742 
C     4.4516666   -1.4216975   -1.8802245 
H     5.3966523    0.4294145   -2.2611251 
H     3.8068895    0.2907028   -3.0330539 
C     4.4841182   -2.2227046   -0.7777041 
C     4.3793774   -1.9550623    0.5574602 
C     4.4528053   -2.9847465    1.4484258 
C     4.6300500   -4.2638809    1.0149526 
C     4.7353480   -4.5242112   -0.3135625 
C     4.6585591   -3.4929644   -1.1799601 
H     4.2343399   -0.9752324    0.9605409 
H     4.3672576   -2.7847103    2.5142094 
H     4.6866503   -5.0782140    1.7331264 
H     4.8780594   -5.5367890   -0.6758300 
N     4.7617373   -3.5860983   -2.5879012 
C     4.6226713   -2.2153923   -2.9582625 
H     4.9108052   -4.4278951   -3.1903724 
H     4.6537651   -1.8641360   -3.9870551 
