48
Energy =
C    -2.7675627   -2.4364351    1.0841358 
C    -1.5947064   -2.0975905    0.4919419 
C    -2.8878684   -2.3911036    2.4379298 
C    -1.8322325   -2.0049456    3.1902627 
C    -0.6569876   -1.6643573    2.6032926 
C    -0.5303304   -1.7129351    1.2491770 
H    -1.5155808   -2.1326523   -0.5914259 
H    -1.9413848   -1.9709140    4.2687809 
H     0.1798987   -1.3536646    3.2241988 
H    -3.6091944   -2.7418247    0.4722171 
C     0.7737826   -1.3175287    0.5949692 
C     0.9345000    0.2183227    0.4915347 
H     0.8613209   -1.7731381   -0.4141550 
H     1.6155566   -1.7436668    1.1885638 
C     2.3492556    0.5867411    0.0739860 
O    -4.0824917   -2.7339444    3.0795915 
H    -4.8258122   -3.0102505    2.4475749 
O     3.4078168    0.0668034    0.8135075 
N    -0.0751061    0.7836979   -0.4245498 
H     0.8204212    0.6731088    1.5036824 
H    -0.0903803    0.2410932   -1.3196278 
H    -1.0254074    0.6972088    0.0076779 
N     2.5941261    1.7264331   -0.7644329 
C     3.8501729    1.7361862   -1.5407225 
H     1.8649714    2.4717410   -0.8212033 
C     4.4118943    3.1460690   -1.6804406 
O     5.7373437    3.3830024   -1.3368842 
O     3.6623522    4.1973310   -2.2133170 
H     2.7358345    3.9052302   -2.4816279 
C     3.6423470    1.0848634   -2.9291508 
H     4.6389154    1.1841959   -0.9840473 
C     3.0493051   -0.3072346   -2.8593136 
H     4.6156223    1.0321002   -3.4663497 
H     2.9792419    1.7332308   -3.5437399 
C     3.6287251   -1.4206708   -2.3789643 
C     4.8611084   -1.6019114   -1.8388949 
C     5.2034617   -2.8501362   -1.4058097 
C     4.3209940   -3.8879090   -1.5237804 
C     3.0915617   -3.6844689   -2.0756081 
C     2.7762204   -2.4412947   -2.4944625 
H     5.5610869   -0.7790782   -1.7405118 
H     6.1805418   -3.0201827   -0.9578170 
H     4.5992115   -4.8792390   -1.1735736 
H     2.3794457   -4.4967972   -2.1759636 
N     1.5552755   -2.0216703   -3.0861065 
C     1.8154289   -0.6267797   -3.2884163 
H     0.6968490   -2.5786671   -3.3028701 
H     1.1081013    0.0731369   -3.7278505 
