48
 energy: -9.288680761559 gnorm: 0.000535374625 xtb: 6.6.0 (2ccbbd7)
C           -1.01891264831446        4.93685953166805       -1.76920002820768
C           -1.30189441196044        3.59086304953217       -1.76215026733978
C            0.21013958025694        5.40480172353459       -2.23597637722358
C            1.13791309717503        4.47142318455761       -2.69506819282928
C            0.83850098485976        3.13122079783252       -2.70018745270381
C           -0.37968991229414        2.66499317059794       -2.22949805229571
H           -2.24855977140058        3.24360137099410       -1.38537228646251
H            2.10778801869725        4.81524722633581       -3.01213988158646
H            1.57616296593558        2.42466698514683       -3.04191701028944
H           -1.74294313358639        5.64455243336045       -1.40699189621999
C           -0.66430939329061        1.19401538612333       -2.16910761633239
C            0.26104437993048        0.44575834337480       -1.19639013148333
H           -0.54956164896903        0.76903144583549       -3.17187680110153
H           -1.70922108140268        1.03578624974239       -1.88459903119774
C            1.67480235285458        0.42543479370293       -1.74170125738522
O            0.52540987432031        6.74972311886619       -2.25149701975846
H           -0.21884092060165        7.27400454462333       -1.88412855005602
O            1.83096136641189        0.21753508670391       -2.92858820775266
N            0.21606453242736        1.03660013177392        0.13534916146347
H           -0.06032440218766       -0.60432506523297       -1.11130921297513
H            0.53192959395666        1.99535083121076        0.07759548783260
H           -0.73605802226463        1.06017299221796        0.47673758637489
N            2.71655403474285        0.67438908404169       -0.87323782417328
C            4.00858938312248        1.16330704776640       -1.36063365379271
H            2.50124118866906        0.94802794484158        0.09199492355009
C            3.86994650576647        2.64099437768824       -1.69077403030548
O            3.79904257428519        2.99199017177959       -2.84947591745863
O            3.79993278221674        3.48111860608185       -0.62795636779057
H            3.86282608329547        2.98553887748250        0.21777666699141
C            4.50428030262581        0.34400543312555       -2.55139986310975
H            4.74420656451867        1.05905138680690       -0.55010501110042
C            5.89727130114561        0.66451388491648       -2.97578765892032
H            3.81788924007366        0.52409992558776       -3.38451624720711
H            4.41935668828118       -0.72158781322415       -2.31957303355214
C            7.03915788522768       -0.18802728005789       -2.91231806623411
C            7.22567154238902       -1.50783828922066       -2.46649028709859
C            8.47986063344288       -2.04930027136950       -2.52838744420895
C            9.56674846792143       -1.31169161295975       -3.02514566530011
C            9.40900772982130       -0.02591097640805       -3.46469058096644
C            8.13279313403847        0.54841244231995       -3.41004282096248
H            6.39192372024031       -2.06941934951565       -2.08460349195568
H            8.63963861770307       -3.05943205684207       -2.18953620808973
H           10.54190520965743       -1.76860241018243       -3.05893110334805
H           10.23595141839858        0.54675016902841       -3.84449452884660
N            7.66668914296015        1.80399580055706       -3.76117183104563
C            6.32327062237108        1.86216730832287       -3.48942603699990
H            8.24354561608519        2.56117441788787       -4.13201384925261
H            5.69176033200339        2.72609403454371       -3.61847385837217
