48
Energy =
C    -0.1175957    0.8917844    4.1391485 
C     0.0694546    0.2768271    2.9438865 
C     0.6433710    0.5467825    5.2115928 
C     1.5877989   -0.4110144    5.0801265 
C     1.7807133   -1.0272803    3.8874468 
C     1.0243667   -0.6846601    2.8068845 
H    -0.5412705    0.5710542    2.0941165 
H     2.1880048   -0.6768216    5.9428667 
H     2.5445631   -1.7947613    3.8040956 
H    -0.8750246    1.6626445    4.2325271 
C     1.2336712   -1.3760612    1.4724976 
C     2.2921076   -0.7059601    0.5592351 
H     0.2652890   -1.4312525    0.9269452 
H     1.5318443   -2.4327990    1.6494158 
C     1.8524087    0.6490129    0.0220752 
O     0.4746288    1.1568709    6.4584533 
H    -0.2366789    1.8800957    6.4681051 
O     1.6451699    1.7170182    0.8879529 
N     3.6085200   -0.6283064    1.2140386 
H     2.3975165   -1.3579222   -0.3379258 
H     3.5705693    0.0667734    1.9984702 
H     3.8634992   -1.5585282    1.6196820 
N     2.0102101    0.9347227   -1.3739539 
C     3.3626834    1.4857727   -1.6667646 
H     1.2481276    1.6057924   -1.6308486 
C     3.3343079    2.9297970   -2.1855491 
O     4.1088836    3.3010402   -3.2765782 
O     2.6279850    3.9288117   -1.5184535 
H     2.2231996    3.5917676   -0.6560580 
C     4.0945393    0.5039523   -2.6147418 
H     3.9920846    1.5596621   -0.7443544 
C     3.3442151    0.2351865   -3.9087796 
H     4.2263568   -0.4637673   -2.0826939 
H     5.1205055    0.8756127   -2.8214021 
C     3.6547846    0.6654298   -5.1461709 
C     4.6840877    1.4428583   -5.5741646 
C     4.7760809    1.7272990   -6.9052184 
C     3.8535410    1.2309581   -7.7829616 
C     2.8327688    0.4475943   -7.3349654 
C     2.7601609    0.1839977   -6.0133842 
H     5.4169094    1.8469869   -4.8836688 
H     5.5847915    2.3572947   -7.2682417 
H     3.9326293    1.4637276   -8.8419882 
H     2.0932461    0.0437342   -8.0180290 
N     1.7902831   -0.6169185   -5.3555674 
C     2.2441440   -0.5352274   -3.9991128 
H     0.9727286   -1.1319115   -5.7555012 
H     1.7655875   -1.0374129   -3.1622198 
