48
 energy: -9.286758959407 gnorm: 0.000836738888 xtb: 6.6.0 (2ccbbd7)
C           -2.68170605521840       -1.29126557056013        2.25821675320346
C           -1.42594021625411       -1.17577862133422        1.71061584039375
C           -3.79729341176360       -1.48257930111539        1.44252732534494
C           -3.60299328944629       -1.54741966903848        0.06315211451623
C           -2.34451487515296       -1.43156386508513       -0.47676952140982
C           -1.23679887004705       -1.24995370019930        0.33846614414472
H           -0.57151133803700       -1.02485982050286        2.34785668980114
H           -4.46324565921548       -1.69168419587463       -0.56559867538568
H           -2.20928659308102       -1.48116771857626       -1.54350116390214
H           -2.81639635859533       -1.23557178294315        3.32350649752251
C            0.12988520603907       -1.08566423983492       -0.24839826404416
C            0.58796119974838        0.37329584211274       -0.30778342167356
H            0.15530956023730       -1.50554813185423       -1.25794744463659
H            0.85401714092222       -1.67002386981089        0.32923276298158
C            2.02068615560795        0.46685155899530       -0.78467795173928
O           -5.07207088202584       -1.60814621204872        1.96060003194568
H           -5.04521951677759       -1.53944184182052        2.93928576895509
O            2.79083313658368       -0.44109540570631       -0.54905504150536
N           -0.28259616143767        1.18455464013910       -1.14878790789987
H            0.55590320914922        0.79831895416313        0.70739392273015
H           -0.24243490038882        0.84356863112083       -2.10020442981154
H           -1.24319018366655        1.10442458677996       -0.84236782849105
N            2.37111277800377        1.61036320722559       -1.46262524130637
C            3.75448887267714        1.94004180728703       -1.80448243481093
H            1.71553072358279        2.39861612060880       -1.49701058732716
C            3.76306463534676        3.08696325674279       -2.79513515350498
O            4.58263035044919        3.96848135805174       -2.65224286773615
O            2.85240904277942        3.01235266009757       -3.79463226721170
H            2.28150562170562        2.21682797737531       -3.67962581884136
C            4.51822386217259        0.72912359552712       -2.34705574467907
H            4.24155516504879        2.28371438600519       -0.88112513778721
C            5.99415457048111        0.90257700984200       -2.49683606121101
H            4.08647213617895        0.43840291999087       -3.30869323147615
H            4.34525254539107       -0.11216065896697       -1.66977538850593
C            6.95223412405475       -0.15335880075985       -2.45824976710069
C            6.83716780436495       -1.53692906635615       -2.24022215213579
C            7.97182734434129       -2.29964313860706       -2.26250576893300
C            9.23133979292011       -1.72398314840125       -2.49632805236189
C            9.36722663982701       -0.37944112520091       -2.70828285167460
C            8.21760714453428        0.42018699510161       -2.68889476312659
H            5.87123051139439       -1.97213453289027       -2.05537266130116
H            7.90102044493363       -3.36172800148163       -2.09692515298853
H           10.10501003684871       -2.35436955051008       -2.50825169600474
H           10.32732266217431        0.07017676128789       -2.88668967489917
N            8.02995292690779        1.77944608257670       -2.86442147969318
C            6.69185557246183        2.05680743853550       -2.75121426315249
H            8.77403538347084        2.45472931149736       -3.04820095827977
H            6.25903098841718        3.03950267766256       -2.83852648177671
