48
 energy: -9.112483441359 gnorm: 0.000934473896 xtb: 6.6.0 (2ccbbd7)
C            0.85623528879932       -3.55956854144384       -3.52311141163177
C            0.26250306290862       -2.65334020380220       -2.67663868308142
C            1.74509598640917       -3.13336275534184       -4.50942520265425
C            2.00806623027531       -1.76862470593060       -4.60997482458031
C            1.41373266561810       -0.87235864565754       -3.75509810169156
C            0.52642772431906       -1.29343417889724       -2.77357688581445
H           -0.41312015319381       -2.99824737148299       -1.91248893342237
H            2.69940791951793       -1.43701569509205       -5.36405240013106
H            1.66724548634163        0.16935588908850       -3.82661039231137
H            0.64553867587182       -4.60962793822613       -3.42784724698905
C           -0.12438350101941       -0.36049109946501       -1.78848780765746
C            0.08396094503769        1.14726300548868       -2.01165976607776
H            0.23065156145515       -0.62277937343853       -0.78674206126828
H           -1.20041459298959       -0.56318707690574       -1.78680964405886
C            1.52969793634299        1.53580236470073       -2.00203813375219
O            2.36665419965085       -4.01796387291965       -5.37015423367189
H            2.06414839688413       -4.93387069429265       -5.18665789297013
O            2.02516883866620        2.18988885443294       -3.09264877329611
N           -0.55227683641962        1.61680800514462       -3.23465620105519
H           -0.39853030494986        1.69428935796050       -1.18419923268667
H           -0.15947966605039        2.52650815098222       -3.45760972385811
H           -0.29942894691290        1.01262003094475       -4.00248977146537
N            2.34017922555737        1.24492549964770       -0.89709880840879
C            3.79377591426112        1.34213184148453       -1.01321145352948
H            2.03098677224896        1.61046606980753        0.00319538548324
C            4.18953032389301        2.79600594565135       -1.17352605248525
O            5.02268590962796        3.24530771446416       -0.41595950648872
O            3.58534743041389        3.45999445957580       -2.17242738312126
H            2.82187858745290        2.85875559941763       -2.68923571479345
C            4.36391409487686        0.51938023720733       -2.17160112916558
H            4.24408590074447        0.97913961772972       -0.07767619748902
C            4.27781103437849       -0.97287619607388       -2.06409982340953
H            5.41683833034036        0.79291346578100       -2.30355702593457
H            3.86759915465958        0.83238405157448       -3.09438287796524
C            3.56565378168320       -1.80577076387835       -1.14184988764380
C            2.73682165720782       -1.55198518141643       -0.03490506039229
C            2.18707760635622       -2.60087208722953        0.64687701278279
C            2.43010614712129       -3.92612945565476        0.25595026471390
C            3.22454611538566       -4.20695867110059       -0.82063067537199
C            3.79961478548004       -3.14233631561566       -1.52569123076380
H            2.51473144426014       -0.54125014772481        0.24150879503345
H            1.54816913215314       -2.40902721430414        1.49287959946709
H            1.98062983754058       -4.73238546639842        0.81161932105809
H            3.41509363630876       -5.21799211135981       -1.13294335977908
N            4.61839834129515       -3.12167054568110       -2.63788265600672
C            4.89555313880879       -1.81728102403348       -2.95452860815786
H            4.90136592181407       -3.94625038533968       -3.17050410605299
H            5.50245696920290       -1.50644621435176       -3.78979739359911
