48
 energy: -9.288113131802 gnorm: 0.000625038507 xtb: 6.6.0 (2ccbbd7)
C           -1.18609905369864        6.21912250762904       -2.22958379686961
C            0.11237540028327        5.79458390716714       -2.38450589392325
C           -2.05574354560065        5.54690306080160       -1.37076920388462
C           -1.57194403606628        4.43652897198926       -0.68074218472910
C           -0.27275188136682        4.02017326837396       -0.84280414527795
C            0.59275071449293        4.69008274870498       -1.69383820616438
H            0.77313630784715        6.32615560309852       -3.04756527556355
H           -2.24253793972863        3.91135479967016       -0.02428414590317
H            0.07720493225574        3.14296357072188       -0.32816063934919
H           -1.54381990352774        7.07760558002870       -2.76871352580735
C            2.01777621407308        4.25344638562870       -1.86152189191637
C            2.20508156484146        2.82748768921001       -2.42017753444760
H            2.53524326244268        4.33318831640416       -0.89974529516589
H            2.52499050772582        4.96671222485253       -2.52038372159634
C            2.13235105975141        1.77949133969703       -1.32902143217563
O           -3.36601571224419        5.94758029184472       -1.19211704246332
H           -3.55178904325403        6.74204442202845       -1.73749170269309
O            1.03622132416473        1.48136407885166       -0.90081455868962
N            1.24250752581197        2.49438804242937       -3.45601885807911
H            3.19843026412436        2.76925913858271       -2.88681703157567
H            0.33611889112488        2.40005156628612       -3.01906794052619
H            1.18006683882213        3.24539716706696       -4.13132535382774
N            3.27243070920203        1.17457872939987       -0.83770283735509
C            4.61578015886371        1.30343098873811       -1.42047216300107
H            3.15347062306514        0.37888978157914       -0.21358804211107
C            4.98927171160896        2.76876177399354       -1.51781969645619
O            5.42875173214675        3.20255552490025       -2.56084283953368
O            4.76184696894224        3.49333782263125       -0.39536626288514
H            4.37456772494436        2.91730331481541        0.30451981076898
C            4.73068635256884        0.57507359200673       -2.76124849614508
H            5.32459559245480        0.83863606761344       -0.71921952659319
C            4.34541210739916       -0.86101162384475       -2.67775042612519
H            5.75272772136954        0.66757571629568       -3.14261369644534
H            4.09900204461834        1.06784001258918       -3.50336889840978
C            3.03111408472540       -1.39254665859846       -2.83951841248042
C            1.78820582212656       -0.80570635371683       -3.13246094966435
C            0.68520039516211       -1.60920625461450       -3.20456846964517
C            0.77868530043085       -2.99460843584680       -2.99649232537022
C            1.97691266602767       -3.58752951266070       -2.70737399899664
C            3.11903713681686       -2.78149883255072       -2.62411829128302
H            1.70755786530649        0.25993612080351       -3.26321170564694
H           -0.27647760519119       -1.17067606845536       -3.41368247038566
H           -0.11151376257521       -3.59822961201477       -3.06001194486651
H            2.05723837493774       -4.64660081646825       -2.54002698652135
N            4.44006145840568       -3.07530601504373       -2.33500212871180
C            5.16909443647200       -1.91238480081097       -2.36104212452280
H            4.79414982571030       -4.00822165277537       -2.11593766517100
H            6.22530367268845       -1.84044873149858       -2.15754712189118
