48
 energy: -9.075036426446 gnorm: 0.000415341196 xtb: 6.6.0 (2ccbbd7)
C            0.75881742077733       -3.05171481612319        2.88445206866182
C            0.12305886012787       -2.16378523895521        2.04862013193651
C            1.94297429264253       -3.67666230759433        2.49066934517674
C            2.46167592332175       -3.37470992668743        1.23182047125425
C            1.81983198027211       -2.48596902374296        0.40387063126541
C            0.63913233146622       -1.87202337237297        0.79395477306297
H           -0.78719144857780       -1.68427173109493        2.36544284462662
H            3.37800822003754       -3.84925446310318        0.92950284103131
H            2.23900954645730       -2.23621686168245       -0.55574116285746
H            0.34924672645639       -3.27231192163949        3.85389985290917
C           -0.04533060816682       -0.89720775932844       -0.11598125141082
C            0.67479446223746        0.45089073755934       -0.21198015191219
H           -1.07737715037931       -0.74365483506203        0.21423833946234
H           -0.11111609054864       -1.32759924843711       -1.11991329739573
C            2.01214752821889        0.32678425654634       -0.89772974440360
O            2.60666729298107       -4.57129124839047        3.30902652484588
H            2.12050880924129       -4.67509851505071        4.15567495111218
O            2.12588785405659       -0.45481311733379       -1.81932796856614
N           -0.08450621536571        1.44179378857673       -0.95886803486642
H            0.84289627092927        0.83822016582489        0.80447121741673
H           -0.25041205897948        1.07941048930118       -1.88995562839450
H           -0.99096623548203        1.58711476948738       -0.53342031386375
N            2.99727187253397        1.19354502601684       -0.46185135708412
C            4.02998440507133        1.71902397624310       -1.36003876078198
H            2.75646699729153        1.87574806149188        0.25760436628846
C            3.58436079518998        3.05774545991257       -1.87396031070308
O            4.53024952538673        4.01468006884891       -2.10305057409168
O            2.24703516886423        3.29989124001340       -2.11084850715993
H            1.62692096473768        2.62548583581247       -1.71595326209073
C            4.39808033054609        0.75006037885973       -2.50202012926009
H            4.92817156910699        1.87142263888245       -0.74272867095407
C            5.84337601145291        0.72012238334606       -2.88662326917682
H            3.77917935532601        0.97277569875441       -3.37697232239566
H            4.11015772967006       -0.26099992578020       -2.19439253888613
C            6.77246197008410        1.80257784506459       -2.92593776828245
C            6.66222054122464        3.16857239718587       -2.64425719201324
C            7.75844616369542        3.96799074632755       -2.76958988156250
C            8.99489541195340        3.43996396136141       -3.17652263676923
C            9.13267931762099        2.10965477652242       -3.46557083868429
C            8.01232372513281        1.27715068274996       -3.34267012396344
H            5.55678553198765        3.60972726174144       -2.34066109063623
H            7.67051312126107        5.02075764952610       -2.55903224603393
H            9.84507745789186        4.09571042874042       -3.26533423327095
H           10.07317224644925        1.69517670611034       -3.78129792131528
N            7.83499069917955       -0.07639966541270       -3.56271321414430
C            6.52829714203504       -0.39968084246567       -3.29184088706048
H            8.56302400687030       -0.71523414559985       -3.88768228699364
H            6.10926864409918       -1.38889992740563       -3.38202992318018
