48
Energy =
C    -1.3782671    0.9522621   -4.0590559 
C    -0.4361517    0.0627671   -3.6665805 
C    -2.6113151    0.9398756   -3.4889738 
C    -2.8881427    0.0288087   -2.5269315 
C    -1.9441608   -0.8629894   -2.1280097 
C    -0.6995191   -0.8418269   -2.6855603 
H     0.5340703    0.0868964   -4.1675959 
H    -3.8736579    0.0201051   -2.0811190 
H    -2.1899893   -1.5927978   -1.3645835 
H    -1.1135721    1.6619438   -4.8376917 
C     0.3585400   -1.8496836   -2.2597847 
C     1.2043725   -1.4880873   -0.9964671 
H     1.0469576   -2.0300035   -3.1185401 
H    -0.1429104   -2.8226549   -2.0797219 
C     2.5639985   -0.8736233   -1.3372652 
O    -3.6131838    1.8421037   -3.8777516 
H    -3.2828446    2.4974436   -4.5784352 
O     3.7130336   -1.6296274   -1.0862690 
N     0.4564120   -0.6855271   -0.0106529 
H     1.4676794   -2.4516023   -0.5081172 
H     0.2981417    0.2642023   -0.4295184 
H    -0.4705919   -1.1250361    0.1681575 
N     2.6872134    0.5031214   -1.7363982 
C     4.0207163    0.8306067   -2.3402122 
H     1.9812437    0.6833590   -2.4891537 
C     4.1122697    2.2200278   -2.9451277 
O     4.6434463    3.3011567   -2.1993428 
O     4.0328736    2.2993163   -4.3473360 
H     3.2731458    1.5589334   -4.6766907 
C     4.5304393   -0.0988994   -3.4530094 
H     4.7762216    0.7840647   -1.5123831 
C     3.5228926   -0.2874978   -4.5410529 
H     5.0050676   -1.0483660   -3.0560636 
H     5.3793613    0.3745412   -3.9776958 
C     3.4903048   -1.3780152   -5.3206968 
C     4.2153154   -2.5490324   -5.2540559 
C     3.9874694   -3.5107142   -6.1917909 
C     3.0640632   -3.3048535   -7.1740426 
C     2.3658398   -2.1315918   -7.2191883 
C     2.6010292   -1.1876500   -6.2817227 
H     4.9476914   -2.7289859   -4.4750063 
H     4.5410125   -4.4441717   -6.1551504 
H     2.8806023   -4.0684983   -7.9221803 
H     1.6287969   -1.9306460   -7.9844242 
N     1.9528262    0.0877835   -6.2066691 
C     2.5043525    0.7941930   -5.0351878 
H     1.2342613    0.4370155   -6.8858552 
H     2.4460163    1.8599533   -5.5031517 
