48
Energy =
C     4.0021983   -4.1896212   -6.4633724 
C     3.5713413   -2.9029614   -6.3840965 
C     3.8085041   -5.0449687   -5.4203906 
C     3.1849778   -4.6069040   -4.3024483 
C     2.7560185   -3.3253483   -4.2288034 
C     2.9328228   -2.4653650   -5.2671982 
H     3.7415435   -2.2317603   -7.2219075 
H     3.0357594   -5.2875870   -3.4714766 
H     2.1965779   -2.8514450   -3.2966077 
H     4.5054845   -4.5314885   -7.3615269 
C     2.4939187   -1.0099752   -5.1361941 
C     1.1850674   -0.8408679   -4.3035463 
H     2.3450124   -0.5721739   -6.1478820 
H     3.3380180   -0.4463587   -4.6302060 
C     1.4039171   -1.1179053   -2.8042057 
O     4.2414634   -6.3734856   -5.4730933 
H     4.6995001   -6.6236643   -6.3427287 
O     1.6757069   -2.4267274   -2.4177258 
N     0.5748388    0.4716927   -4.5624703 
H     0.4506287   -1.6361631   -4.6055573 
H     1.2741548    1.2064089   -4.8230937 
H    -0.0583248    0.3983677   -5.3935182 
N     1.4733091   -0.0831240   -1.8190574 
C     2.6885120    0.7569364   -1.7012188 
H     0.6353482    0.0747620   -1.2190650 
C     2.6802719    1.8955253   -2.7189341 
O     1.7604532    2.9267014   -2.5561243 
O     3.4699189    1.8986591   -3.8841085 
H     4.3046647    1.3339566   -3.8285985 
C     3.9997489   -0.0790794   -1.6980665 
H     2.6277289    1.2757246   -0.7222947 
C     4.1307452   -0.9587821   -0.4707320 
H     4.8780871    0.6067969   -1.7002417 
H     4.0745468   -0.6862075   -2.6278074 
C     4.3769130   -0.5660159    0.7780046 
C     4.5670793    0.6820659    1.2792538 
C     4.8147814    0.8148072    2.6131218 
C     4.8745618   -0.2893926    3.4156280 
C     4.6936120   -1.5321832    2.8856595 
C     4.4508151   -1.6428879    1.5605110 
H     4.5330623    1.5589925    0.6411486 
H     4.9670039    1.8037539    3.0391071 
H     5.0705192   -0.1774688    4.4794201 
H     4.7410800   -2.4207878    3.5064938 
N     4.2623342   -2.8658092    0.8454992 
C     4.0739172   -2.2980343   -0.4670178 
H     5.1785911   -3.3707089    0.8273836 
H     3.9300307   -2.9017980   -1.3574154 
