48
 energy: -9.205929479738 gnorm: 0.000986349824 xtb: 6.6.0 (2ccbbd7)
C           -0.25682306065237        0.02147203989924        4.92663017890420
C           -0.31974640507520        0.88243680478853        3.85645687898904
C            0.64379246954583       -1.04352744575974        4.92975828774848
C            1.47056130709804       -1.20892345378802        3.81984878734761
C            1.39886611981197       -0.34373082301138        2.75526755646145
C            0.50454807210383        0.71611043335449        2.75119940414562
H           -1.01429486027291        1.70474238989324        3.87300138220383
H            2.16175864845025       -2.03283477352262        3.81671811743018
H            2.02497377172877       -0.50335492343231        1.89603854487559
H           -0.90069941897462        0.16384408168491        5.77591681382958
C            0.44572920277361        1.69365115653805        1.61310835256034
C            0.28376014982251        1.06767172101106        0.21395768327081
H            1.35026642679751        2.31023660412414        1.62969299105924
H           -0.38521688904042        2.38395557785927        1.79265687346452
C            1.59761032631512        0.53836293618604       -0.30861035621624
O            0.73467268644461       -1.92569802033504        5.98919351952673
H            0.09725174680093       -1.67482609914589        6.69205658683454
O            1.89068909309485       -0.62002256028330       -0.10210958367103
N           -0.70036431114853       -0.00489446911466        0.18863461286287
H           -0.06056176368016        1.84027101377881       -0.49282771492020
H           -0.23281640824411       -0.86351573379846        0.46614155920067
H           -1.45139909154686        0.17652453006065        0.84395183787473
N            2.42459833971472        1.40987291444112       -0.97739463385940
C            3.77508928235575        1.01993161257072       -1.34665463187489
H            2.24510336408407        2.41569633722264       -0.97570651104246
C            4.48990604882592        2.16397256016475       -2.03823690385569
O            5.44316310208462        2.63292799244186       -1.45205433818558
O            4.05869602224138        2.59224235038274       -3.24815038030172
H            3.09087194859793        2.25527231876614       -3.69961941823345
C            3.79472500063267       -0.23525594636038       -2.21755929894956
H            4.30530980693956        0.82027089310746       -0.40278718453786
C            3.18037625058543        0.02944276753179       -3.53594523309967
H            3.24361697192552       -1.03691601576067       -1.71433800768023
H            4.82415179428166       -0.58088990143986       -2.35696887218484
C            3.23246738765900       -0.72992572835987       -4.68712665875345
C            3.81411772982273       -1.99614926152839       -4.95002774653308
C            3.65478186320448       -2.54913928169736       -6.19088670610842
C            2.93128049603037       -1.89104385217663       -7.19684958977970
C            2.35954888409676       -0.65551685777051       -6.98069433557016
C            2.51048803200888       -0.05143890109204       -5.73719392983134
H            4.35881487739195       -2.50476504268762       -4.17482899396686
H            4.08867876368765       -3.51263461400700       -6.40091755320659
H            2.82244734640991       -2.36176347403877       -8.15966831894085
H            1.81087782518136       -0.14865988218958       -7.75400281735929
N            2.04305535063543        1.15883419229693       -5.25837739395052
C            2.39091776481854        1.24713473628022       -3.85095679543128
H            1.15352801368340        1.57634555647344       -5.54365267176763
H            2.33792429538839        2.36404829929173       -3.32312132616120
