48
Energy =
C     0.8762563    7.0799758   -6.6615640 
C     0.7026681    6.3234925   -5.5485012 
C     2.0459809    7.0211503   -7.3529373 
C     3.0348812    6.2037128   -6.9250982 
C     2.8669815    5.4448658   -5.8129714 
C     1.6989218    5.5026110   -5.1155911 
H    -0.2400921    6.3780377   -5.0101612 
H     3.9628430    6.1637837   -7.4852188 
H     3.6750092    4.7925901   -5.4858238 
H     0.0763793    7.7307403   -6.9978649 
C     1.5084146    4.6445535   -3.8857627 
C     1.1203681    3.1889201   -4.2460488 
H     0.7424241    5.0814120   -3.2080686 
H     2.4552638    4.6563430   -3.2986039 
C     1.3194721    2.2660302   -3.0596100 
O     2.2564989    7.7877916   -8.5036614 
H     1.4682664    8.3725359   -8.7587848 
O     0.8554667    2.6329918   -1.7990740 
N    -0.2719695    3.1249078   -4.7185019 
H     1.7989041    2.8017879   -5.0467047 
H    -0.9171442    3.5105431   -3.9875801 
H    -0.3823832    3.6981701   -5.5868791 
N     2.1564206    1.1073452   -3.1815229 
C     3.4609352    1.3339075   -2.5200089 
H     1.6348637    0.3545699   -2.6755619 
C     4.2269587    2.4866287   -3.1735658 
O     4.4700254    2.4693012   -4.5409794 
O     4.6452784    3.6005631   -2.4459858 
H     4.4820248    3.4966541   -1.4554186 
C     4.2766801    0.0251692   -2.5868018 
H     3.2918566    1.5913617   -1.4473107 
C     5.5443031    0.1093369   -1.7628586 
H     4.5084657   -0.2198844   -3.6475479 
H     3.6616911   -0.8190003   -2.2044945 
C     6.7711653    0.4545426   -2.1883323 
C     7.2058052    0.7799037   -3.4332337 
C     8.5203202    1.1034175   -3.5973952 
C     9.3726404    1.0963937   -2.5283182 
C     8.9148735    0.7671350   -1.2873261 
C     7.6099593    0.4510153   -1.1500260 
H     6.5327397    0.7946594   -4.2853204 
H     8.8894056    1.3742042   -4.5838474 
H    10.4182392    1.3592077   -2.6680497 
H     9.5770780    0.7612471   -0.4282308 
N     6.9364637    0.0921121    0.0485298 
C     5.6025717   -0.1068895   -0.4365894 
H     7.3153082   -0.0001007    1.0191682 
H     4.7561637   -0.3827108    0.1882942 
