48
Energy =
C     0.1728247    0.6954887    0.2635832 
C     0.3644490   -0.3602858   -0.5671938 
C     0.2702354    0.5335851    1.6080961 
C     0.5525945   -0.6777021    2.1237967 
C     0.7427254   -1.7237893    1.3135761 
C     0.6632084   -1.5877343   -0.0488667 
H     0.2817557   -0.2061904   -1.6454052 
H     0.6375414   -0.8201279    3.1870666 
H     1.0146364   -2.7354617    1.7338932 
H    -0.0568435    1.6784626   -0.1540558 
C     0.8771680   -2.7879538   -0.9835340 
C     2.2560418   -3.5126386   -0.8699355 
H     0.7548199   -2.4563796   -2.0435893 
H     0.0530468   -3.5200938   -0.8231417 
C     3.4289733   -2.5504481   -0.6676187 
O     0.0897464    1.5956247    2.4843518 
H    -0.1501329    2.4887016    2.0508948 
O     3.5096080   -1.8445151    0.5297008 
N     2.2390497   -4.5756764    0.1586742 
H     2.4224730   -4.0229375   -1.8499705 
H     2.0158504   -4.2473817    1.1451945 
H     1.5185605   -5.2924640   -0.0916916 
N     4.4711336   -2.3711936   -1.6541893 
C     4.8524127   -0.9387813   -1.7851678 
H     4.1121202   -2.7166415   -2.5790826 
C     3.6565080   -0.0696314   -2.1455828 
O     2.6263905   -0.6334996   -2.8809333 
O     3.5466966    1.2570862   -1.7434442 
H     4.3585114    1.6254501   -1.2667784 
C     5.9711634   -0.8231011   -2.8548941 
H     5.2214034   -0.5522219   -0.7991719 
C     6.5895029    0.5604544   -2.8887327 
H     5.5636593   -1.0678688   -3.8659347 
H     6.7680809   -1.5828946   -2.6719037 
C     7.6045002    1.0096229   -2.1285836 
C     8.3528510    0.3621314   -1.1959294 
C     9.3353649    1.0606578   -0.5557965 
C     9.5519428    2.3778635   -0.8514148 
C     8.7899166    3.0061705   -1.7900919 
C     7.8261191    2.2953232   -2.4109266 
H     8.2016344   -0.6871991   -0.9622631 
H     9.9600195    0.5693331    0.1896694 
H    10.3411834    2.9273802   -0.3401070 
H     8.9537649    4.0510733   -2.0379031 
N     6.9266610    2.7580481   -3.4064946 
C     6.1595822    1.5757261   -3.6647937 
H     6.8447737    3.7171431   -3.8229846 
H     5.3346524    1.5250457   -4.3797680 
