48
Energy =
C     3.2976432    6.5258287   -5.8865701 
C     3.1332469    5.7082982   -4.8157022 
C     2.2676755    7.3014295   -6.3190496 
C     1.0784057    7.2524300   -5.6764835 
C     0.9071180    6.4362886   -4.6055485 
C     1.9361402    5.6619245   -4.1668870 
H     3.9678998    5.0877260   -4.4826545 
H     0.2650648    7.8746576   -6.0330617 
H    -0.0577369    6.4082938   -4.1062520 
H     4.2547520    6.5550092   -6.3967049 
C     1.7535682    4.7356369   -2.9876556 
C     1.5057061    3.2738771   -3.4376015 
H     0.9300426    5.0787542   -2.3247167 
H     2.6700344    4.7912384   -2.3564382 
C     1.9090411    2.2817136   -2.3612300 
O     2.4036140    8.1543725   -7.4192016 
H     3.3238853    8.1301892   -7.8448926 
O     1.8048704    2.6257316   -1.0166989 
N     0.0989066    3.0806999   -3.8214350 
H     2.1591499    3.0396260   -4.3151499 
H    -0.5257720    3.3036379   -3.0096401 
H    -0.1453237    3.7316529   -4.6040314 
N     2.7108998    1.1516922   -2.7184760 
C     4.1581403    1.2557128   -2.4521788 
H     2.2400285    0.3159283   -3.1326161 
C     4.7406761    2.5575513   -3.0087553 
O     5.0237014    2.6720427   -4.3638557 
O     4.9151133    3.6850752   -2.2086365 
H     4.6445340    3.5089197   -1.2505353 
C     4.8625739    0.0171953   -3.0425862 
H     4.3172314    1.2592713   -1.3502833 
C     6.3355589   -0.0052250   -2.6972767 
H     4.7353858    0.0139556   -4.1495144 
H     4.3764695   -0.9087845   -2.6664570 
C     6.8920549   -0.4947891   -1.5787983 
C     6.3124780   -1.1059039   -0.5135160 
C     7.1112795   -1.5046233    0.5176557 
C     8.4604814   -1.2855038    0.4712428 
C     9.0192223   -0.6647278   -0.6064294 
C     8.2087607   -0.2826804   -1.6154989 
H     5.2403301   -1.2744188   -0.4706436 
H     6.6723990   -1.9962201    1.3827668 
H     9.0898773   -1.6034415    1.2987559 
H    10.0864440   -0.4765435   -0.6556991 
N     8.5823513    0.3920547   -2.8084391 
C     7.3068141    0.5435240   -3.4486970 
H     9.5299905    0.6919185   -3.1339850 
H     7.1399273    1.0745236   -4.3865972 
