48
Energy =
C     0.2656896    4.3654657    4.0583173 
C     0.4313221    3.4564131    3.0642735 
C     0.9946060    5.5135773    4.0632970 
C     1.8855974    5.7437844    3.0722066 
C     2.0556754    4.8383266    2.0757861 
C     1.3252286    3.6893643    2.0643228 
H    -0.1554167    2.5411459    3.0753822 
H     2.4618859    6.6624774    3.0881583 
H     2.7804541    5.0410140    1.2904019 
H    -0.4498118    4.1711428    4.8500126 
C     1.5243386    2.6666343    0.9684436 
C     2.3994665    1.4791741    1.4361445 
H     1.9777474    3.1437150    0.0693134 
H     0.5280714    2.2910895    0.6423836 
C     2.4588319    0.3821980    0.3859873 
O     0.8491800    6.4699001    5.0735464 
H     0.1611109    6.2248072    5.7769964 
O     1.9310866   -0.8671566    0.6821922 
N     3.7516724    1.9354130    1.8078131 
H     1.9186722    0.9987256    2.3234903 
H     4.0963193    2.6710680    1.1441554 
H     3.7129108    2.3953981    2.7482701 
N     2.7443123    0.6850121   -0.9840364 
C     4.1447818    0.9638684   -1.3432276 
H     1.9487089    0.7418401   -1.6576937 
C     4.3121350    2.4061144   -1.8002827 
O     5.1436265    3.2523665   -1.0796219 
O     3.6474286    2.9167087   -2.9154539 
H     3.0223623    2.2411220   -3.3264085 
C     4.5871066   -0.0537092   -2.4133017 
H     4.8127300    0.8527332   -0.4537153 
C     6.0700494    0.0474091   -2.6909293 
H     4.0161985    0.0946605   -3.3556915 
H     4.3388949   -1.0823347   -2.0670784 
C     7.0574101   -0.5632075   -2.0171623 
C     6.9934605   -1.4265566   -0.9707380 
C     8.1617799   -1.8999539   -0.4497513 
C     9.3620493   -1.5046300   -0.9728826 
C     9.4013565   -0.6317374   -2.0195901 
C     8.2321080   -0.1804472   -2.5200570 
H     6.0422684   -1.7355833   -0.5468275 
H     8.1383496   -2.5918937    0.3889746 
H    10.2888689   -1.8833776   -0.5491845 
H    10.3447510   -0.3011060   -2.4406303 
N     8.0524058    0.7439151   -3.5838421 
C     6.6218572    0.8456096   -3.6218799 
H     8.7708220    1.2152711   -4.1802908 
H     6.0653961    1.5163205   -4.2768292 
