48
Energy =
C     0.5365871    4.6092981    4.1153887 
C     0.7550167    4.0035183    2.9209349 
C     0.5449122    3.8802620    5.2631237 
C     0.7732392    2.5484313    5.2073674 
C     0.9926517    1.9371484    4.0156779 
C     0.9799714    2.6615120    2.8632088 
H     0.7513183    4.6013866    2.0132629 
H     0.7797008    1.9790211    6.1305034 
H     1.1790548    0.8663012    3.9921032 
H     0.3573715    5.6784614    4.1502793 
C     1.2454591    1.9833126    1.5373770 
C     2.7572418    1.7635586    1.2975051 
H     0.8015967    2.5712814    0.7038612 
H     0.7191997    1.0008586    1.5263011 
C     2.9979248    0.8564949    0.1004855 
O     0.3242681    4.4734251    6.5102215 
H     0.1597192    5.4733565    6.4684074 
O     3.5402837   -0.4054728    0.3171555 
N     3.4615798    3.0510718    1.1483467 
H     3.1860579    1.2060047    2.1668345 
H     2.9093114    3.7132989    0.5522686 
H     3.5534623    3.5041864    2.0891177 
N     2.8728548    1.3351026   -1.2517103 
C     4.2086511    1.6182562   -1.8341283 
H     2.2728294    2.1909269   -1.2386242 
C     4.2147227    2.9121432   -2.6518139 
O     3.8716235    2.8893304   -3.9992617 
O     4.5222574    4.1401959   -2.0668354 
H     4.7572913    4.0560029   -1.0883498 
C     4.6158758    0.4000307   -2.6905727 
H     4.9822303    1.7704489   -1.0409372 
C     6.0566599    0.4880539   -3.1394449 
H     3.9382677    0.3179007   -3.5709562 
H     4.4647958   -0.5368661   -2.1101853 
C     7.1361349    0.1131929   -2.4369273 
C     7.2186138   -0.4512543   -1.2045687 
C     8.4556927   -0.7279408   -0.7014201 
C     9.5780133   -0.4359529   -1.4267405 
C     9.4699374    0.1359204   -2.6599224 
C     8.2350195    0.3968026   -3.1375966 
H     6.3280021   -0.6791260   -0.6234033 
H     8.5490024   -1.1811153    0.2828134 
H    10.5604143   -0.6574263   -1.0171322 
H    10.3500582    0.3800726   -3.2451446 
N     7.9035982    1.0033752   -4.3790314 
C     6.4707882    1.0341752   -4.2965347 
H     8.5342639    1.3338173   -5.1453145 
H     5.8128803    1.4788365   -5.0449290 
