48
Energy =
C    -0.6946023    3.0066306    0.2042683 
C    -0.2380300    3.0201462   -1.0735396 
C    -1.9622786    2.5950213    0.4731286 
C    -2.7648929    2.1982771   -0.5396026 
C    -2.3142076    2.2081795   -1.8187661 
C    -1.0444641    2.6169363   -2.0950247 
H     0.7816834    3.3453613   -1.2687875 
H    -3.7732533    1.8716415   -0.3117835 
H    -2.9768061    1.8856080   -2.6169701 
H    -0.0417230    3.3231989    1.0105687 
C    -0.5333675    2.6309033   -3.5211805 
C     0.0790472    1.2811242   -3.9934397 
H     0.2146135    3.4494391   -3.6353480 
H    -1.3575235    2.9183020   -4.2088634 
C     1.2553643    0.8139550   -3.1445448 
O    -2.4659184    2.5728468    1.7776209 
H    -1.7968919    2.8659789    2.4815032 
O     1.0739943    0.4103949   -1.8260192 
N    -0.9576258    0.2365670   -4.1066248 
H     0.5239759    1.4525200   -5.0064186 
H    -1.2870913   -0.0468681   -3.1515073 
H    -1.7843287    0.5880173   -4.6448098 
N     2.5823757    0.8372046   -3.6805913 
C     3.4561622    1.9315048   -3.2173083 
H     2.8919785    0.0512695   -4.2945578 
C     2.9938516    3.2699706   -3.7809560 
O     2.2440248    3.3142533   -4.9504782 
O     3.2623513    4.4664596   -3.1235524 
H     3.8693308    4.3328030   -2.3286970 
C     4.9240034    1.6349598   -3.6115508 
H     3.3843201    2.0187860   -2.1071774 
C     5.6214825    0.7322128   -2.6076259 
H     5.4757534    2.5930792   -3.7074275 
H     4.9661586    1.1662831   -4.6195718 
C     6.8061213    0.9499254   -2.0045706 
C     7.6657883    1.9993780   -2.1072776 
C     8.8170305    1.9710799   -1.3762807 
C     9.0934343    0.9082832   -0.5628757 
C     8.2206267   -0.1341232   -0.4757252 
C     7.0879969   -0.0838144   -1.2075331 
H     7.4615555    2.8479453   -2.7505755 
H     9.5196474    2.7984768   -1.4419297 
H    10.0135751    0.8932886    0.0158527 
H     8.4254401   -0.9863336    0.1633244 
N     6.0628675   -1.0629953   -1.2605975 
C     5.1560858   -0.4616935   -2.1920304 
H     5.9891560   -1.9777833   -0.7595060 
H     4.2196383   -0.9159292   -2.5027577 
