48
Energy =
C    -1.4889400   -0.2581780   -0.1583341 
C    -0.3365609   -0.0389504    0.5250274 
C    -1.7425145   -1.4815699   -0.6946955 
C    -0.8394714   -2.4773641   -0.5453169 
C     0.3131468   -2.2642134    0.1386286 
C     0.5680850   -1.0442129    0.6837664 
H    -0.1317278    0.9514882    0.9315633 
H    -1.0494593   -3.4457563   -0.9866430 
H     1.0293871   -3.0749877    0.2394274 
H    -2.2040284    0.5485254   -0.2813341 
C     1.8763815   -0.7881222    1.3980185 
C     2.9892059   -0.3821434    0.3990689 
H     2.1756678   -1.7026508    1.9594396 
H     1.7491403    0.0108848    2.1689349 
C     2.6548273    0.8965140   -0.3293145 
O    -2.9184281   -1.7400060   -1.4052176 
H    -3.5425124   -0.9438252   -1.4784802 
O     2.2213036    1.9954606    0.3951945 
N     4.2758662   -0.2582586    1.1170576 
H     3.0606411   -1.1345930   -0.4344514 
H     4.2397336    0.5516658    1.7906919 
H     4.4797580   -1.1173173    1.6839018 
N     2.3706687    0.8453100   -1.7261908 
C     3.5140568    0.9632414   -2.6534420 
H     1.3847908    0.6771200   -2.0310346 
C     3.5730866    2.3395364   -3.3027764 
O     4.7913261    3.0058356   -3.3506750 
O     2.4680845    2.9151017   -3.9303558 
H     1.6422816    2.3471798   -3.8255430 
C     3.4241394   -0.1502512   -3.7185779 
H     4.4853096    0.8707650   -2.1071036 
C     3.5942536   -1.5166492   -3.0997568 
H     4.2031613   -0.0037281   -4.5006470 
H     2.4424308   -0.1011178   -4.2422626 
C     4.7492995   -2.0921149   -2.7315618 
C     6.0253945   -1.6506245   -2.8718594 
C     7.0351807   -2.4223016   -2.3765687 
C     6.7568861   -3.6066489   -1.7513714 
C     5.4664782   -4.0258457   -1.6161797 
C     4.4858099   -3.2466041   -2.1178047 
H     6.2478384   -0.7079141   -3.3641816 
H     8.0669060   -2.0928446   -2.4780941 
H     7.5678223   -4.2153944   -1.3587017 
H     5.2282207   -4.9597990   -1.1184157 
N     3.0857896   -3.4789293   -2.0539577 
C     2.5823537   -2.3122102   -2.7105213 
H     2.5573149   -4.2588611   -1.6005513 
H     1.5277445   -2.0812319   -2.8037983 
