48
Energy =
C     0.4264762   -3.7190471   -2.3156120 
C     0.0336357   -2.5624034   -2.9060983 
C     1.2628906   -4.5694379   -2.9673135 
C     1.6841850   -4.2659727   -4.2149226 
C     1.2831570   -3.1185253   -4.8152612 
C     0.4649376   -2.2474641   -4.1594117 
H    -0.6319936   -1.8931143   -2.3673375 
H     2.3464202   -4.9535268   -4.7283584 
H     1.6241362   -2.9021474   -5.8232665 
H     0.0781969   -3.9546306   -1.3160311 
C     0.0022139   -0.9681814   -4.8355845 
C     1.0093225    0.2119637   -4.7637886 
H    -0.9653137   -0.6394654   -4.3935115 
H    -0.2188630   -1.1850247   -5.9031581 
C     1.1963796    0.8052618   -3.3728066 
O     1.7078859   -5.7568830   -2.3768022 
H     1.3117445   -5.9331060   -1.4597782 
O     0.3550463    0.4328767   -2.3263302 
N     2.2981767   -0.1428992   -5.3847749 
H     0.5688878    1.0527016   -5.3486041 
H     2.7780100   -0.8822042   -4.8229848 
H     2.1435337   -0.5135628   -6.3513861 
N     1.9032666    2.0464634   -3.2557581 
C     2.7510362    2.0968980   -2.0427612 
H     1.1549395    2.7750000   -3.1855539 
C     3.1873261    3.5334876   -1.7502658 
O     3.4571746    4.4036419   -2.7987738 
O     3.4031574    3.9769559   -0.4445006 
H     3.2200728    3.2628585    0.2434308 
C     4.0119407    1.2167195   -2.2500491 
H     2.1670792    1.7845678   -1.1510372 
C     3.8129897   -0.2808890   -2.0627084 
H     4.8180249    1.5276806   -1.5482403 
H     4.3781250    1.4252137   -3.2817446 
C     4.5314031   -1.2493129   -2.6613524 
C     5.5038040   -1.1569718   -3.6072868 
C     6.0725124   -2.3075642   -4.0690661 
C     5.6720155   -3.5202896   -3.5817828 
C     4.7037471   -3.5896919   -2.6260950 
C     4.1550492   -2.4381663   -2.1870533 
H     5.8275286   -0.1992961   -4.0022091 
H     6.8489546   -2.2597878   -4.8291502 
H     6.1299628   -4.4333888   -3.9540933 
H     4.3746596   -4.5441205   -2.2260768 
N     3.1527530   -2.2952894   -1.1954631 
C     2.9819913   -0.8711228   -1.1782571 
H     2.6703635   -3.0397885   -0.6413427 
H     2.2611851   -0.3565119   -0.5460033 
