48
Energy =
C     5.7639048    3.9849117    2.7289984 
C     5.2397683    2.8472832    2.2078602 
C     5.4948545    4.3348696    4.0151999 
C     4.7020948    3.5418126    4.7715379 
C     4.1747428    2.4025989    4.2556206 
C     4.4432802    2.0472748    2.9693657 
H     5.4639038    2.5815929    1.1764105 
H     4.4951459    3.8323043    5.7955435 
H     3.5371668    1.7812043    4.8788450 
H     6.3979392    4.6132488    2.1129627 
C     3.8467873    0.7890771    2.3793821 
C     2.6392708    1.0912378    1.4610306 
H     3.5440201    0.0752142    3.1787694 
H     4.6407769    0.2660683    1.7976158 
C     2.2491662   -0.1509560    0.6694997 
O     6.0170177    5.5021110    4.5828167 
H     6.6062056    6.0361848    3.9533120 
O     1.8704997   -1.3045778    1.3454900 
N     1.4941354    1.5808740    2.2455952 
H     2.9286683    1.8778706    0.7275348 
H     1.2328726    0.8702156    2.9716212 
H     1.7525443    2.4641583    2.7448415 
N     2.2050830   -0.1525884   -0.7672707 
C     3.5491797   -0.3521702   -1.3596281 
H     1.7334133    0.7230610   -1.0813980 
C     4.4626420    0.8747641   -1.2868782 
O     5.7626238    0.7152834   -0.8286986 
O     4.0428550    2.1594006   -1.6331426 
H     3.1478251    2.1598173   -2.0944870 
C     3.4088643   -0.9231173   -2.7860644 
H     4.0807616   -1.1476437   -0.7816178 
C     2.6819288   -0.0051712   -3.7431320 
H     2.8535381   -1.8866881   -2.7225598 
H     4.4125615   -1.1819690   -3.1892791 
C     3.2283154    0.9016167   -4.5688525 
C     4.5311455    1.2331914   -4.7604757 
C     4.8242991    2.2161927   -5.6594227 
C     3.8230081    2.8464550   -6.3453561 
C     2.5217258    2.4993869   -6.1335822 
C     2.2574943    1.5238036   -5.2393240 
H     5.3283093    0.7459218   -4.2059668 
H     5.8595890    2.5043615   -5.8256878 
H     4.0650558    3.6309626   -7.0578382 
H     1.7150291    2.9933180   -6.6642690 
N     0.9814316    1.0290802   -4.8597189 
C     1.3464399    0.0415511   -3.8867150 
H     0.0335921    1.3153763   -5.1962870 
H     0.6394651   -0.5794276   -3.3380578 
