48
Energy =
C    -1.1739149   -1.5453874   -1.2310965 
C    -0.4515734   -1.2509399   -0.1205284 
C    -1.5914958   -0.5506119   -2.0587867 
C    -1.2922710    0.7347811   -1.7630036 
C    -0.5782454    1.0357657   -0.6486793 
C    -0.1508397    0.0428395    0.1791728 
H    -0.1116611   -2.0588448    0.5227608 
H    -1.6278810    1.5193506   -2.4326881 
H    -0.3401666    2.0751748   -0.4297465 
H    -1.4065176   -2.5795135   -1.4617736 
C     0.6936958    0.3665036    1.3927567 
C     2.1936813    0.4717997    1.0314461 
H     0.5462851   -0.4185478    2.1664519 
H     0.3508656    1.3193632    1.8580346 
C     2.4847398    1.7232189    0.2178691 
O    -2.3195817   -0.8230872   -3.2213862 
H    -2.5381604   -1.8051645   -3.3501434 
O     2.0959323    2.9653704    0.7040958 
N     3.0080059    0.4544613    2.2557937 
H     2.4831929   -0.4024753    0.4061168 
H     2.7530738    1.2752180    2.8586766 
H     2.8160077   -0.4152898    2.8057419 
N     2.8318567    1.6280625   -1.1659896 
C     4.2250081    1.2581392   -1.4946611 
H     2.0652425    1.6818158   -1.8740075 
C     4.9350823    2.3333089   -2.3177814 
O     6.1750944    2.0411503   -2.8728648 
O     4.4441155    3.6305257   -2.4622828 
H     3.6444765    3.7990621   -1.8686516 
C     4.2578780   -0.1368190   -2.1777052 
H     4.8439617    1.1966774   -0.5672829 
C     3.2371112   -0.2943591   -3.2889397 
H     4.0621069   -0.9111871   -1.4049819 
H     5.2775087   -0.3584018   -2.5646547 
C     3.3701590    0.0361249   -4.5851213 
C     4.4423600    0.5244635   -5.2598154 
C     4.3082222    0.7866445   -6.5918275 
C     3.1189220    0.5554157   -7.2252041 
C     2.0570375    0.0579886   -6.5307733 
C     2.2145540   -0.1931545   -5.2144646 
H     5.3916126    0.7011011   -4.7671180 
H     5.1521429    1.1840907   -7.1515412 
H     3.0191554    0.7697875   -8.2865165 
H     1.1056579   -0.1310214   -7.0168853 
N     1.2386846   -0.7050528   -4.3193750 
C     1.9863971   -0.7506320   -3.0991663 
H     0.2481771   -0.9901455   -4.5062063 
H     1.5827728   -1.0701848   -2.1436928 
