48
 energy: -9.250046032564 gnorm: 0.000513821151 xtb: 6.6.0 (2ccbbd7)
C           -1.88570456227503        0.93960158065116        0.80510113574190
C           -1.11257969571038        1.80453226879600        0.06868824403204
C           -1.97095956165908        1.07247963456457        2.19140799097186
C           -1.25004959979932        2.09897733753401        2.80176327761408
C           -0.48104469943183        2.96075102688323        2.05613094422196
C           -0.40681873609471        2.83205390179887        0.67663304917710
H           -1.02458314962683        1.68037335240025       -0.99685412890768
H           -1.31217853648592        2.19860251727173        3.87080052319988
H            0.07224642524834        3.74589762570289        2.54183952963361
H           -2.42719093822049        0.14780457883705        0.31895937405598
C            0.43697990007180        3.76390046668185       -0.14088335243998
C            1.73496498759017        3.12504473535326       -0.63795711596559
H            0.66453722161367        4.66058484530795        0.44470111113191
H           -0.13914345303774        4.10732234874659       -1.00602189396972
C            1.51233095438938        2.12228905460793       -1.73160720533719
O           -2.73853749208858        0.22138832795954        2.96379919693438
H           -3.18664110367271       -0.43827546546464        2.39109409255637
O            0.47683244681124        2.13469678124994       -2.36954651993264
N            2.68838999820586        4.14209989072991       -1.18109358708356
H            2.22103810983854        2.61514458744785        0.20326428819434
H            2.14878114334955        4.69860806334011       -1.87917540126208
H            2.90899387010686        4.82582274618697       -0.42487426464551
N            2.52434425133643        1.23353924524732       -2.01878988475284
C            3.83310470382952        1.19215403285402       -1.34280374322325
H            2.45163886851517        0.67098679504957       -2.86475116369684
C            4.32061121128685        2.56638889491079       -1.00206374722743
O            3.86701906474788        3.61849508686292       -1.77190727311298
O            5.15975191611809        2.74888225893895        0.07297509061059
H            5.39287776347773        1.88429825159088        0.47841518486743
C            4.87125179574771        0.44331316806297       -2.18195285285116
H            3.67989126224150        0.64702562217609       -0.40054676480598
C            4.58913796083512       -1.01546011896455       -2.34178350207567
H            5.86107945393735        0.56677173637371       -1.73050885175972
H            4.93051507261466        0.91448727186767       -3.16757408171101
C            5.50729710329945       -1.99088742166605       -2.83321024366439
C            6.83789450561543       -1.91087234370339       -3.27946398139637
C            7.45862464000236       -3.05513425389324       -3.69885495256079
C            6.79085806603775       -4.29084201855060       -3.68793350311654
C            5.49641726014224       -4.39279385953718       -3.25689197693544
C            4.84206865596231       -3.23269464633527       -2.82331333424428
H            7.34412439339238       -0.96200101018971       -3.28839983622676
H            8.47777841081922       -3.01019812485574       -4.04549921583917
H            7.30932206558638       -5.17299263337167       -4.02548925527861
H            4.97724104237001       -5.33434283848759       -3.24560250929647
N            3.56093516380968       -3.01506377317822       -2.34787135901305
C            3.41831663853734       -1.67905866018975       -2.06723927677135
H            2.84457574062925       -3.73647989039161       -2.24745425551236
H            2.51601992079241       -1.22581133280296       -1.69392889969841
