48
 energy: -9.067629918416 gnorm: 0.000528321337 xtb: 6.6.0 (2ccbbd7)
C            2.99453223054934        6.67955418647307       -5.00383257819650
C            2.94743729011306        5.54609591720769       -4.22846248931602
C            2.18889340426274        7.77844084939380       -4.70345009455220
C            1.33794647923601        7.69235990516753       -3.60167961900210
C            1.29619779681735        6.55487689908590       -2.83125948846606
C            2.10352966039881        5.46680473101640       -3.13025442479899
H            3.56255639797863        4.69677069405767       -4.47603351505341
H            0.71435942061401        8.53819914425020       -3.37325006342852
H            0.63055318194406        6.50053572874774       -1.98689493135676
H            3.65101422416571        6.72712619465374       -5.85413373799820
C            2.03527774232863        4.20771866741459       -2.32364313398685
C            1.38156776679998        3.05743433436845       -3.09303984483666
H            1.47370095353054        4.37898531843949       -1.40072946795721
H            3.04443991113337        3.92639098479617       -2.00914020696660
C            1.45721587095377        1.76255450836534       -2.31424918968553
O            2.21162105964142        8.93461662397938       -5.46022362095422
H            2.84636066246619        8.83770742402952       -6.20262409301659
O            0.54555951762708        1.52810579718639       -1.54645016681140
N           -0.01539755104623        3.33089766978991       -3.39751555527467
H            1.88950873826424        2.92948947663098       -4.05939002708653
H           -0.56681748122463        3.10989115593850       -2.57208643966050
H           -0.15193476823794        4.30752658768931       -3.62830501814739
N            2.52174338941738        0.88919509211794       -2.46213368087350
C            3.86457743868846        1.28253007740244       -2.93039628109378
H            2.53532741770695        0.07855419844073       -1.84867385605174
C            3.80110366144781        1.84539868672391       -4.31647611867795
O            4.60505499669045        2.89897025129051       -4.64166316696514
O            2.91611096982744        1.26956231123941       -5.19730370673778
H            2.39091178483491        0.57545905679891       -4.73474089047138
C            4.86833018130462        0.11113005075454       -2.85525467900736
H            4.20883070433082        2.07448470017488       -2.25136745899345
C            6.24797793086774        0.49770930138463       -2.42313786572129
H            4.91486138215971       -0.38797658182721       -3.82840191011476
H            4.49159650822476       -0.64374653152841       -2.15745962868490
C            6.98420784249038        1.67388341661315       -2.76151460309780
C            6.69229992508477        2.80066849964701       -3.54017131774444
C            7.62415237221728        3.78669694205809       -3.66646063717821
C            8.87065839607878        3.69036470885246       -3.02658494477847
C            9.18613744909045        2.60264925245251       -2.25928998253389
C            8.23750529169374        1.58071062443491       -2.12241918276886
H            5.60631718273581        2.86186824603778       -4.10739434787904
H            7.40010676683241        4.65071035585168       -4.26946207673711
H            9.58817628641043        4.48524706547270       -3.14511729986979
H           10.13747758861799        2.51716051137462       -1.76564801754933
N            8.26119963773305        0.38523622188911       -1.42849114046764
C            7.06438012987740       -0.25954939807372       -1.61875581035358
H            9.04841663170399        0.05158709240972       -0.86938491303704
H            6.80789281409059       -1.21729635791945       -1.19566421972664
