48
Energy =
C     4.2169543    3.7632654    4.2153606 
C     4.2477473    2.8776365    3.1877928 
C     3.6154465    3.4287811    5.3882185 
C     3.0479265    2.2086663    5.5239445 
C     3.0753369    1.3188090    4.4995403 
C     3.6792503    1.6479986    3.3248096 
H     4.7303933    3.1604892    2.2549583 
H     2.5702785    1.9551110    6.4639480 
H     2.6091220    0.3455058    4.6277477 
H     4.6737093    4.7397683    4.0956227 
C     3.7013726    0.6693691    2.1721945 
C     2.6505634    1.0155542    1.0915107 
H     3.5419728   -0.3731782    2.5300069 
H     4.7194873    0.6803529    1.7223927 
C     2.8727064    0.1832083   -0.1567951 
O     3.5649020    4.3180589    6.4667667 
H     4.0129311    5.2098574    6.2858392 
O     2.8027356   -1.2056622   -0.0909399 
N     1.2854358    0.8214550    1.6059316 
H     2.7736261    2.0812614    0.7829677 
H     1.1715111   -0.1610064    1.9538849 
H     1.1107535    1.4686801    2.4100475 
N     3.4195288    0.7939154   -1.3278315 
C     4.8413386    0.5459280   -1.6212994 
H     2.8094113    1.3948662   -1.9284194 
C     5.5666298    1.8308657   -2.0060760 
O     4.8604955    2.8916252   -2.5598474 
O     6.9525714    1.9400413   -1.8977552 
H     7.3691159    1.1147919   -1.4928565 
C     4.9582744   -0.5264567   -2.7218018 
H     5.3546450    0.1566690   -0.7125796 
C     4.2208802   -0.1436101   -3.9895310 
H     4.5670651   -1.4892112   -2.3270630 
H     6.0296520   -0.7065248   -2.9604441 
C     2.9720576   -0.4975486   -4.3365009 
C     2.0714025   -1.2767557   -3.6827509 
C     0.8466200   -1.4687238   -4.2507874 
C     0.5409435   -0.8837901   -5.4483026 
C     1.4580722   -0.1007409   -6.0839348 
C     2.6640539    0.0718899   -5.5033898 
H     2.3030893   -1.7331084   -2.7246759 
H     0.1082338   -2.0859026   -3.7442185 
H    -0.4392328   -1.0386979   -5.8923109 
H     1.2289469    0.3781895   -7.0298331 
N     3.7415864    0.8620928   -5.9848022 
C     4.7066845    0.6766120   -4.9388410 
H     3.8128139    1.4193887   -6.8673627 
H     5.6725668    1.1807808   -4.8893843 
