48
Energy =
C     3.0483927   -3.4974236   -0.5081434 
C     2.3645924   -2.3567305   -0.2381736 
C     4.3033104   -3.6749715   -0.0154617 
C     4.8664012   -2.7076805    0.7435999 
C     4.1863751   -1.5663287    1.0183910 
C     2.9279326   -1.3864489    0.5320378 
H     1.3660444   -2.2233929   -0.6479654 
H     5.8703471   -2.8573135    1.1251053 
H     4.6574441   -0.7978753    1.6261343 
H     2.5906555   -4.2637365   -1.1241064 
C     2.1796138   -0.1044400    0.8190103 
C     2.6386396    1.0469020   -0.1041281 
H     2.3455527    0.1747562    1.8826541 
H     1.0813882   -0.2560191    0.7097112 
C     2.2290001    0.8087033   -1.5589725 
O     5.0411156   -4.8325516   -0.2873336 
H     4.5317176   -5.5249461   -0.8264127 
O     0.8863556    0.9603959   -1.8923297 
N     2.0869840    2.3194726    0.3863565 
H     3.7466492    1.1257765   -0.0670203 
H     1.0393789    2.2737604    0.4085381 
H     2.4237212    2.5111028    1.3586750 
N     3.0262288    0.0011733   -2.4449951 
C     4.4954122    0.1631378   -2.4894329 
H     2.5141140   -0.7022887   -3.0245273 
C     4.9286621    1.6274895   -2.5603757 
O     5.8329087    2.1103991   -1.6225478 
O     4.4821712    2.4811677   -3.5680724 
H     3.7464701    2.0503560   -4.1104840 
C     5.0522361   -0.6426195   -3.6833175 
H     4.9323993   -0.2604407   -1.5569922 
C     6.5646141   -0.6963897   -3.6585022 
H     4.7084635   -0.1925789   -4.6417547 
H     4.6459358   -1.6770351   -3.6628763 
C     7.3250626   -1.5984796   -3.0195439 
C     6.9593456   -2.6886414   -2.2995841 
C     7.9364777   -3.4434447   -1.7216753 
C     9.2521190   -3.1005067   -1.8713522 
C     9.5966573   -2.0001452   -2.6002368 
C     8.6097795   -1.2712019   -3.1633625 
H     5.9170418   -2.9629170   -2.1818444 
H     7.6635411   -4.3211976   -1.1376642 
H    10.0257741   -3.7060580   -1.4057815 
H    10.6344011   -1.7101250   -2.7244938 
N     8.7482799   -0.0863709   -3.9351569 
C     7.3742035    0.2265104   -4.2076264 
H     9.6168375    0.4169212   -4.2290433 
H     7.0330711    1.1180375   -4.7346358 
