48
 energy: -9.179257652101 gnorm: 0.000281355403 xtb: 6.6.0 (2ccbbd7)
C            1.16838283948962        2.75423222443992       -5.13325704069986
C            0.87121550155874        3.03230463578679       -3.82191317327467
C            0.25075320779311        2.07984220181817       -5.93788988777839
C           -0.96344587121656        1.69308783552886       -5.36934861196873
C           -1.24483808670296        1.96353303584120       -4.05005492760096
C           -0.33093972647708        2.64017448330132       -3.25495082487799
H            1.60502104006456        3.51429742861160       -3.19833437878065
H           -1.67030306769606        1.16961960360115       -5.98782601768139
H           -2.17955497778793        1.64500654890323       -3.62182826545935
H            2.13051010007811        3.02300376850309       -5.53236147634514
C           -0.59640810024149        2.90278742508747       -1.80210500433002
C            0.23529493502190        2.01871328766106       -0.86034973184556
H           -1.66235535106092        2.77592869701238       -1.58951970494752
H           -0.36966593960148        3.95066726111873       -1.58322403110814
C            1.69562310250020        2.24360081012758       -1.08615404823129
O            0.51925084171628        1.78526386169302       -7.26131556592545
H            1.40608487081275        2.12905803346011       -7.50507348110897
O            2.17081725702236        3.56239374703327       -1.01802866909208
N           -0.09612261959981        2.25224375619894        0.54078600107129
H            0.01676375121011        0.96303848165169       -1.08294551917825
H            0.22465802052073        3.17550680454819        0.80089701064907
H           -1.09834619151729        2.22482344932366        0.68262496967215
N            2.54394806564084        1.19682100685802       -1.41266246334538
C            3.86051972748463        1.45754509918442       -2.00137450480717
H            2.13085553573986        0.33560640053940       -1.76340175131962
C            3.78180421074921        2.72582852578406       -2.81938861969733
O            4.02107724210462        2.72348056341020       -4.02348892984699
O            3.36149939119335        3.86133804964663       -2.09706452899369
H            3.32359612108660        3.63706034622823       -0.96643402968075
C            4.37711778177109        0.26130176506379       -2.81175672849259
H            4.54877223035122        1.64005126662383       -1.16406232998790
C            5.83757602974983        0.32562541548965       -3.11758289813993
H            3.80756567739767        0.19658087878929       -3.74337308994769
H            4.17205583228366       -0.66541464452484       -2.26581875028526
C            6.44870557422057        0.76164950723474       -4.33228515129650
C            5.93131061432367        1.25788850700417       -5.54131288767994
C            6.80070249678483        1.59863109322205       -6.53992761367453
C            8.18816804122293        1.45991122396340       -6.37246947225921
C            8.71622739429817        0.98787872468648       -5.20174944327068
C            7.84148464037550        0.63577828051112       -4.16573132299261
H            4.87088176455391        1.40906560920673       -5.64204740712076
H            6.41715471649409        1.99189336008666       -7.46680343392023
H            8.84650825938127        1.73865682306381       -7.17859497007327
H            9.77742498827472        0.88599924136570       -5.06191369384774
N            8.06470730733052        0.15029073127470       -2.88931424869965
C            6.85443641466588       -0.02666202875548       -2.26498631777586
H            8.98724485087369       -0.02359763895322       -2.48610990032921
H            6.72699094935927       -0.39315321436242       -1.25936227576567
