48
 energy: -9.286710577866 gnorm: 0.000406078407 xtb: 6.6.0 (2ccbbd7)
C           -2.01312492220453        1.63482082792385        2.17463055799998
C           -1.25526897478894        2.76557792347385        1.98121944707826
C           -1.89580823463158        0.54464737809650        1.31226717890689
C           -0.99400626808492        0.63707541405692        0.25304917422297
C           -0.24165533216292        1.77083863972103        0.06868308827929
C           -0.35084176085107        2.85232529336875        0.93172662102789
H           -1.36166044078384        3.60282792535012        2.64958141451330
H           -0.90466028786865       -0.20036961347218       -0.41547327309185
H            0.45241247072495        1.82487663264719       -0.75088900595225
H           -2.70753719993982        1.58110588209092        2.99385943974474
C            0.44409865930101        4.11219149626427        0.73219494199192
C            1.81776544268569        3.91019559928912        0.07689201577435
H            0.57724988954748        4.60569139857534        1.69992197308370
H           -0.13312573386374        4.80804664227204        0.11532260722560
C            1.66276969811934        3.67633265222471       -1.40678029858566
O           -2.64145067485774       -0.60680134342929        1.47899140717746
H           -3.22888479317540       -0.51546312217408        2.26009875649947
O            1.10935482474871        4.52886571539289       -2.07213428349560
N            2.69967302275088        5.04949475739491        0.27326697064018
H            2.29732393669936        3.03163220779321        0.53222044636424
H            2.36214513009367        5.82313390661980       -0.28403250375231
H            2.71640393949306        5.34153875889879        1.24258404594634
N            2.17540704499881        2.52675579271044       -2.00504354308391
C            3.56304299448608        2.10159987561604       -1.78092330866122
H            1.96273459049484        2.41173363658273       -2.99206444675401
C            4.53251210421418        3.03972685403174       -2.48003713628602
O            5.69383752455120        2.69200742862349       -2.52385860059218
O            4.05442124732563        4.18817436503445       -3.02580588931369
H            3.09823631786638        4.32885403085837       -2.81163021929696
C            3.76582775203304        0.66085864617016       -2.26458622964370
H            3.77277946966656        2.16221761825847       -0.70510390812731
C            3.24996027701778        0.43010365619562       -3.64696725323322
H            3.26151766866169       -0.03089235108315       -1.58201395958183
H            4.83157917137931        0.41205939971542       -2.22838960129012
C            3.81824644371001        0.88654118683584       -4.87567965755061
C            4.97710175636713        1.61851098822722       -5.18905958207532
C            5.24574995094861        1.90489700565008       -6.49781985356053
C            4.38604769080924        1.48198452586583       -7.52376156778302
C            3.24750062886713        0.77662454915667       -7.24587257545679
C            2.95455682654330        0.47571091667500       -5.90959548911271
H            5.60733250900751        1.98230462176452       -4.39738448069842
H            6.12426057419437        2.47729504307108       -6.74611979658298
H            4.62486933053033        1.72597941745387       -8.54569197358112
H            2.57875199268815        0.45552159840356       -8.02417091876621
N            1.89506419948017       -0.19353304731708       -5.32478738930346
C            2.07871723553688       -0.21232031926732       -3.96504663721981
H            1.10878318847525       -0.59809659418647       -5.83643792285077
H            1.39767122031026       -0.65807064368589       -3.25813884630654
