48
Energy =
C     1.2809914    4.7896199    2.1685425 
C     0.7650090    3.5483707    2.3545784 
C     2.6181614    4.9539274    1.9854986 
C     3.4288605    3.8728293    1.9804797 
C     2.9200286    2.6289701    2.1750165 
C     1.5832848    2.4599920    2.3706760 
H    -0.3072539    3.4338187    2.4901919 
H     4.4882199    4.0184879    1.7998530 
H     3.5872000    1.7698609    2.1542367 
H     0.6214513    5.6504792    2.1648273 
C     1.0022801    1.0749043    2.5613224 
C     0.7097175    0.3879474    1.2076065 
H     0.0659134    1.1480255    3.1564479 
H     1.6945746    0.4451035    3.1654021 
C     1.9866813   -0.0533703    0.5118319 
O     3.1836222    6.2211442    1.8080562 
H     2.5038717    6.9719422    1.7663040 
O     2.9788922   -0.7227858    1.2232314 
N    -0.1886994   -0.7589733    1.4082200 
H     0.2080629    1.1181532    0.5299810 
H     0.2629175   -1.4454438    2.0606385 
H    -1.0828194   -0.4405094    1.8495772 
N     2.0965424    0.0289211   -0.9130809 
C     3.3336442    0.6408801   -1.4334262 
H     1.3011025   -0.3048544   -1.5014388 
C     3.3844875    2.1357710   -1.1644945 
O     4.5694506    2.6939519   -0.7011441 
O     2.2956849    2.9729353   -1.4050993 
H     1.4994686    2.4527470   -1.7406673 
C     3.4711781    0.3443923   -2.9408385 
H     4.2160899    0.2165234   -0.8950252 
C     3.7661772   -1.1184621   -3.1853534 
H     4.2928367    0.9559834   -3.3780511 
H     2.5412426    0.6442000   -3.4730478 
C     4.9599326   -1.7225314   -3.0795299 
C     6.1738848   -1.2014657   -2.7645852 
C     7.2462397   -2.0428090   -2.7147300 
C     7.0908794   -3.3764289   -2.9753603 
C     5.8614898   -3.8771280   -3.2868210 
C     4.8164298   -3.0244332   -3.3317458 
H     6.2989548   -0.1433101   -2.5517142 
H     8.2290505   -1.6512563   -2.4627449 
H     7.9501191   -4.0408904   -2.9301321 
H     5.7201951   -4.9330544   -3.4906843 
N     3.4616293   -3.3398960   -3.6211883 
C     2.8471905   -2.0491524   -3.4962207 
H     3.0368558   -4.2641560   -3.8650122 
H     1.7827531   -1.8573409   -3.6124404 
