48
Energy =
C     0.1763818    5.2986750    2.0171420 
C    -0.2092838    4.3037784    1.1788974 
C     1.2780781    5.1445131    2.7992528 
C     1.9892845    3.9959574    2.7331214 
C     1.6085189    2.9980710    1.8960684 
C     0.5005137    3.1434283    1.1185043 
H    -1.0856413    4.4431481    0.5515326 
H     2.8708355    3.8884772    3.3557956 
H     2.2014395    2.0885463    1.8479557 
H    -0.3959173    6.2189371    2.0578353 
C     0.0880480    2.0453303    0.1616000 
C     0.5576618    2.3351181   -1.2806389 
H    -1.0192588    1.9450626    0.1743436 
H     0.4901438    1.0647466    0.4981773 
C     2.0682218    2.4780393   -1.3682592 
O     1.7005073    6.1478884    3.6776443 
H     1.1320186    6.9874413    3.6519757 
O     2.5770602    3.5969350   -1.5313747 
N     0.0614422    1.2834606   -2.1842707 
H     0.1460694    3.3189658   -1.6129468 
H     0.3407070    0.3413686   -1.8251982 
H    -0.9846389    1.3120904   -2.2138793 
N     2.9344494    1.3327491   -1.3121239 
C     4.1154523    1.4393346   -2.1863787 
H     2.7244436    0.5145425   -0.7001445 
C     4.3477457    2.9003173   -2.5759743 
O     5.3453446    3.2310309   -3.4881532 
O     3.6485160    3.7934873   -2.0724007 
H     3.4633360    3.7674925   -1.0914372 
C     3.8934344    0.5570324   -3.4301346 
H     5.0233780    1.1163436   -1.6335105 
C     3.8665871   -0.9100769   -3.0709971 
H     4.6944777    0.7351434   -4.1821670 
H     2.9314497    0.8491832   -3.9127290 
C     4.9241592   -1.6880966   -2.7958618 
C     6.2482804   -1.3880168   -2.7959939 
C     7.1350261   -2.3725396   -2.4718529 
C     6.6898345   -3.6267926   -2.1561452 
C     5.3547433   -3.9042355   -2.1630389 
C     4.4976160   -2.9135838   -2.4876606 
H     6.6023534   -0.3925794   -3.0494324 
H     8.2013474   -2.1591441   -2.4660327 
H     7.4029404   -4.4062264   -1.8996783 
H     4.9850277   -4.8934327   -1.9154571 
N     3.0801422   -2.9886650   -2.5504525 
C     2.7509038   -1.6465701   -2.9325325 
H     2.4494917   -3.8011314   -2.3625947 
H     1.7387792   -1.2803911   -3.0863361 
