48
Energy =
C    -0.5257459   -2.8748074   -3.8880231 
C    -0.5228395   -2.3484281   -2.6380951 
C    -1.0914200   -2.1897675   -4.9156289 
C    -1.6678992   -0.9900606   -4.6822260 
C    -1.6784074   -0.4633026   -3.4313981 
C    -1.0918030   -1.1322819   -2.4009863 
H    -0.0630355   -2.9117238   -1.8323383 
H    -2.1222738   -0.4566040   -5.5092100 
H    -2.1572835    0.4962023   -3.2652626 
H    -0.0629421   -3.8397137   -4.0649345 
C    -1.0613462   -0.5317604   -1.0067160 
C    -0.0206197    0.6115352   -0.8323133 
H    -0.8388012   -1.3257741   -0.2608190 
H    -2.0792267   -0.1713836   -0.7443430 
C     1.3145866    0.3082953   -1.5071483 
O    -1.0842967   -2.6933892   -6.2197534 
H    -0.7174882   -3.6357138   -6.2890414 
O     1.6735139    0.9389114   -2.6959320 
N    -0.5756221    1.9074456   -1.2612771 
H     0.2127133    0.7011115    0.2526382 
H    -0.6200812    1.9526252   -2.3063272 
H    -1.5372348    2.0530080   -0.8777161 
N     2.1533155   -0.7442437   -1.0126461 
C     3.5558205   -0.4401331   -0.6713219 
H     1.7461793   -1.6897297   -0.8496902 
C     3.7097597    0.7873571    0.2283097 
O     3.9734814    0.5925172    1.5787130 
O     3.6189818    2.0963288   -0.2455059 
H     3.3084567    2.1405653   -1.2057210 
C     4.4272958   -0.3822489   -1.9477292 
H     3.9397500   -1.2793266   -0.0477096 
C     4.4771968   -1.7294452   -2.6406055 
H     5.4648182   -0.0902536   -1.6696814 
H     4.0644079    0.4053799   -2.6397534 
C     3.7736519   -2.1351751   -3.7154373 
C     2.8786780   -1.4657068   -4.4877167 
C     2.3036667   -2.1218035   -5.5379859 
C     2.6269590   -3.4236867   -5.7981915 
C     3.5272536   -4.0774696   -5.0122727 
C     4.0827352   -3.4074591   -3.9809677 
H     2.6169913   -0.4337545   -4.2886830 
H     1.5725135   -1.6106217   -6.1661412 
H     2.1622824   -3.9403431   -6.6352926 
H     3.7955298   -5.1111162   -5.2061537 
N     5.0353131   -3.9065224   -3.0540103 
C     5.2342667   -2.7589711   -2.2198963 
H     5.4709875   -4.8567154   -2.9957968 
H     5.8998965   -2.7344124   -1.3589124 
