48
Energy =
C    -0.7066461    1.8129259   -7.9860392 
C     0.0778447    1.8563122   -6.8798624 
C    -0.3770653    1.0015413   -9.0262318 
C     0.7367317    0.2381838   -8.9518697 
C     1.5256884    0.2777676   -7.8475718 
C     1.2013896    1.0908862   -6.8055933 
H    -0.2002490    2.5086220   -6.0555715 
H     0.9850122   -0.4046273   -9.7896623 
H     2.4168706   -0.3444644   -7.8009774 
H    -1.5981923    2.4285071   -8.0353997 
C     2.0723240    1.1212006   -5.5699779 
C     1.7958956   -0.0858768   -4.6385433 
H     1.9234396    2.0767682   -5.0206374 
H     3.1433013    1.1371005   -5.8802090 
C     2.9983670   -0.4282756   -3.7686550 
O    -1.1636983    0.9311164  -10.1803761 
H    -1.9769200    1.5370752  -10.1616547 
O     3.7430435   -1.5594697   -4.0945612 
N     0.5875967    0.1467836   -3.8312177 
H     1.6348636   -0.9988571   -5.2586428 
H     0.7091075    1.0164197   -3.2598070 
H    -0.2331175    0.2955582   -4.4625800 
N     3.1790214    0.1647478   -2.4683018 
C     4.2635769    1.1779889   -2.4208092 
H     3.3956952   -0.6230274   -1.8162042 
C     3.9105978    2.4206217   -3.2260376 
O     4.6310496    2.7515554   -4.3672740 
O     2.8400537    3.2330943   -2.8580084 
H     2.3523409    2.8526950   -2.0596443 
C     5.6533433    0.5948041   -2.7985498 
H     4.3327957    1.5561139   -1.3765902 
C     6.1519696   -0.4022084   -1.7771015 
H     6.3959021    1.4201862   -2.8829628 
H     5.6244835    0.1348458   -3.8099342 
C     6.6988820   -0.1221408   -0.5840038 
C     6.9639091    1.0790890   -0.0089226 
C     7.5288425    1.0922173    1.2325813 
C     7.8167445   -0.0815694    1.8730202 
C     7.5418005   -1.2758859    1.2752547 
C     6.9837693   -1.2624721    0.0465491 
H     6.7375995    2.0120574   -0.5172581 
H     7.7520118    2.0410651    1.7150570 
H     8.2668647   -0.0627495    2.8625584 
H     7.7630583   -2.2158895    1.7692737 
N     6.6169534   -2.3850043   -0.7431308 
C     6.0829587   -1.7380587   -1.9091236 
H     6.7129939   -3.4046012   -0.5291181 
H     5.6652253   -2.2541715   -2.7750481 
