48
Energy =
C     0.4059063    4.9684855    0.1153500 
C     0.6363813    3.9110476   -0.7031020 
C    -0.6322955    4.9401589    0.9924071 
C    -1.4312215    3.8503772    1.0468213 
C    -1.2023419    2.7878403    0.2342964 
C    -0.1660778    2.8118346   -0.6483287 
H     1.4790717    3.9425471   -1.3902062 
H    -2.2542087    3.8386841    1.7530999 
H    -1.8514409    1.9189955    0.2996374 
H     1.0568069    5.8344660    0.0712507 
C     0.1022307    1.6207231   -1.5464108 
C     1.1911573    0.6643192   -0.9955275 
H     0.3997472    1.9823930   -2.5554619 
H    -0.8372320    1.0469263   -1.7081415 
C     2.5610561    1.3242548   -0.9094630 
O    -0.9011268    6.0144334    1.8475680 
H    -0.2467442    6.7852690    1.7661293 
O     2.9095824    2.0575354    0.2218648 
N     0.7810122    0.0804060    0.2918612 
H     1.3104086   -0.1692845   -1.7214156 
H     0.7771680    0.8249696    1.0308431 
H    -0.1915227   -0.2979719    0.2221597 
N     3.3297724    1.5238574   -2.1037155 
C     4.7880880    1.3411168   -1.9933745 
H     2.8559632    1.6744326   -3.0220945 
C     5.5086910    2.6074085   -2.4370689 
O     6.2108748    2.6325978   -3.6370966 
O     5.4586291    3.7693155   -1.6681314 
H     4.8671186    3.6511495   -0.8557409 
C     5.2191938    0.1049756   -2.8109924 
H     5.1005567    1.1913431   -0.9319023 
C     4.5351507   -1.1521070   -2.3231527 
H     6.3213049   -0.0276131   -2.7250046 
H     5.0165144    0.2748938   -3.8905105 
C     3.4415269   -1.7331767   -2.8430594 
C     2.7024832   -1.3905147   -3.9308842 
C     1.6046708   -2.1418150   -4.2316233 
C     1.2633559   -3.2100714   -3.4494694 
C     2.0187578   -3.5348094   -2.3622095 
C     3.1028780   -2.7797585   -2.0877072 
H     2.9649868   -0.5398080   -4.5515550 
H     0.9975839   -1.8901865   -5.0982827 
H     0.3861713   -3.8038141   -3.6951638 
H     1.7593439   -4.3760853   -1.7282088 
N     4.0004455   -2.9326963   -0.9978768 
C     4.8935966   -1.8342453   -1.2213986 
H     4.0093784   -3.6536738   -0.2400790 
H     5.7243910   -1.5748782   -0.5686511 
