48
Energy =
C    -3.1237767    2.9878167    1.5965938 
C    -1.9138960    2.9060705    0.9875694 
C    -3.3776255    2.2542613    2.7131530 
C    -2.4173643    1.4435186    3.2127349 
C    -1.2055566    1.3576006    2.6075929 
C    -0.9458030    2.0920262    1.4911838 
H    -1.7254868    3.4953080    0.0933731 
H    -2.6334514    0.8637761    4.1032417 
H    -0.4488705    0.6966748    3.0215077 
H    -3.8873824    3.6400749    1.1868390 
C     0.3960773    1.9896188    0.8003443 
C     0.3385219    1.1148268   -0.4734774 
H     1.1718565    1.5928524    1.4930817 
H     0.7352190    3.0147401    0.5282510 
C     1.6420886    1.2083924   -1.2470095 
O    -4.6142606    2.3127907    3.3641535 
H    -5.2762832    2.9477750    2.9314423 
O     2.8491053    1.0289064   -0.5720519 
N     0.0401886   -0.2863806   -0.1382973 
H    -0.4620418    1.5055387   -1.1436249 
H     0.7391427   -0.6313153    0.5631018 
H    -0.9080656   -0.3465624    0.3001832 
N     1.6110889    1.4285737   -2.6734379 
C     2.9499148    1.4725550   -3.3197906 
H     1.0071368    0.6865389   -3.0918105 
C     2.9637184    2.4809183   -4.4617135 
O     4.0865710    3.2809132   -4.6356456 
O     1.9375878    2.5586150   -5.4048978 
H     1.1595812    1.9674735   -5.1568123 
C     3.3828621    0.0712039   -3.8370052 
H     3.7249922    1.8752084   -2.6223390 
C     3.9030184   -0.8190626   -2.7290807 
H     4.2031532    0.1898839   -4.5827927 
H     2.5548153   -0.4201702   -4.3899833 
C     3.2209553   -1.7411868   -2.0285627 
C     1.9222590   -2.1250938   -2.1204416 
C     1.4682280   -3.0925046   -1.2717458 
C     2.3108556   -3.6572895   -0.3547878 
C     3.6116824   -3.2570194   -0.2806051 
C     4.0360155   -2.2983962   -1.1304360 
H     1.2479162   -1.6682122   -2.8352677 
H     0.4274382   -3.4060210   -1.3169030 
H     1.9422506   -4.4246649    0.3218579 
H     4.2936857   -3.6903112    0.4434483 
N     5.3395252   -1.7411847   -1.2099092 
C     5.1648219   -0.7856100   -2.2638059 
H     6.1977445   -1.9732492   -0.6590904 
H     5.9446134   -0.1161907   -2.6213915 
