48
Energy =
C     0.6076181    2.6596744   -5.9422737 
C     0.6328366    2.3523019   -4.6212210 
C    -0.2640091    2.0303005   -6.7738053 
C    -1.1071934    1.0982814   -6.2753836 
C    -1.0841469    0.7849378   -4.9550941 
C    -0.2016058    1.4004055   -4.1189556 
H     1.3314028    2.8744793   -3.9726534 
H    -1.8012542    0.6064555   -6.9480002 
H    -1.7769211    0.0390408   -4.5757533 
H     1.2881936    3.4105452   -6.3293308 
C    -0.1804848    1.0557900   -2.6423406 
C     0.2500985   -0.4062876   -2.3700482 
H    -1.2047312    1.2195511   -2.2416964 
H     0.4880589    1.7455220   -2.0783022 
C     1.7283446   -0.6446845   -2.6521155 
O    -0.3191311    2.3266367   -8.1398624 
H     0.3602175    3.0190594   -8.4362355 
O     2.0884460   -1.4053748   -3.7593192 
N    -0.1095458   -0.7761351   -0.9875723 
H    -0.2814679   -1.0933157   -3.0704407 
H     0.1636278   -0.0140125   -0.3220965 
H    -1.1497990   -0.8792897   -0.9175932 
N     2.7213702   -0.3875891   -1.6477565 
C     3.9401569    0.3560117   -2.0169599 
H     2.4885761   -0.6125804   -0.6555133 
C     3.6569251    1.6166022   -2.8367010 
O     3.5038681    2.8277704   -2.1733875 
O     3.5231462    1.6066209   -4.2269241 
H     3.3737990    0.6746007   -4.5876700 
C     4.9490395   -0.6155904   -2.6676419 
H     4.4020583    0.7343868   -1.0766468 
C     6.3026105    0.0300025   -2.8637557 
H     4.5616643   -0.9974343   -3.6375695 
H     5.0481495   -1.5216680   -2.0319708 
C     7.2963118    0.1036719   -1.9640820 
C     7.3650239   -0.3876733   -0.6998892 
C     8.5011678   -0.1636846    0.0211363 
C     9.5375197    0.5428417   -0.5241126 
C     9.4435858    1.0308713   -1.7937114 
C     8.3108580    0.7933999   -2.4877595 
H     6.5417540   -0.9433847   -0.2618910 
H     8.5824651   -0.5463808    1.0357935 
H    10.4386529    0.7196904    0.0579052 
H    10.2533797    1.5988207   -2.2391011 
N     8.0047843    1.2243383   -3.8060517 
C     6.6812185    0.6959597   -3.9692210 
H     8.5895424    1.7741816   -4.4766975 
H     6.0569434    0.8533325   -4.8493641 
