48
Energy =
C    -2.1591211   -1.3397824   -2.6240342 
C    -1.9184206   -0.1277939   -2.0628236 
C    -1.2363173   -1.9078362   -3.4455017 
C    -0.0776234   -1.2589189   -3.6974685 
C     0.1686153   -0.0469761   -3.1398209 
C    -0.7547097    0.5299782   -2.3228266 
H    -2.6613989    0.3091004   -1.4007841 
H     0.6509385   -1.7256645   -4.3484054 
H     1.1111792    0.4505447   -3.3461639 
H    -3.0895228   -1.8544686   -2.4109429 
C    -0.4722055    1.8657412   -1.6692034 
C     0.0929986    1.6898041   -0.2413665 
H    -1.4152513    2.4543524   -1.6249899 
H     0.2301709    2.4639423   -2.2905482 
C     1.4192973    0.9520301   -0.2344080 
O    -1.4529624   -3.1543293   -4.0428842 
H    -2.3380592   -3.5811489   -3.7921467 
O     1.5072174   -0.3051088    0.3531729 
N     0.2157706    2.9995287    0.4167934 
H    -0.6075308    1.0555290    0.3524121 
H     0.8273354    3.6346872   -0.1523377 
H    -0.7256042    3.4522639    0.4861841 
N     2.5926142    1.5341131   -0.8183876 
C     3.7837035    1.6370527    0.0415882 
H     2.5742018    1.8799042   -1.8024287 
C     4.0850372    3.0949729    0.3648818 
O     5.0445968    3.7889976   -0.3639928 
O     3.3841872    3.7753655    1.3601825 
H     2.6421043    3.2125552    1.7533508 
C     4.9714693    0.9338309   -0.6512027 
H     3.6159145    1.1379522    1.0257078 
C     4.6535703   -0.5113348   -0.9749900 
H     5.8625478    0.9679970    0.0146106 
H     5.2557545    1.4866353   -1.5726023 
C     4.2583446   -1.0099229   -2.1589361 
C     4.0800771   -0.3890272   -3.3547680 
C     3.6700622   -1.1365857   -4.4195536 
C     3.4413921   -2.4769174   -4.2751758 
C     3.6193954   -3.0773789   -3.0646861 
C     4.0311087   -2.3182782   -2.0277954 
H     4.2580073    0.6744020   -3.4748410 
H     3.5250702   -0.6646144   -5.3884574 
H     3.1129043   -3.0672076   -5.1273433 
H     3.4365658   -4.1382936   -2.9310882 
N     4.2754794   -2.7470218   -0.6963757 
C     4.6662514   -1.5136637   -0.0786264 
H     4.2048809   -3.7056303   -0.2850173 
H     4.9029996   -1.4028638    0.9768529 
