48
 energy: -9.067471630770 gnorm: 0.000366938352 xtb: 6.6.0 (2ccbbd7)
C            1.42037380341661        5.57309039666525        3.17144530619736
C            1.22116588637053        4.41286104095046        2.46088662834184
C            2.31585703424844        6.54111952703736        2.71511038499235
C            2.99569266677831        6.30137626215745        1.52141329680661
C            2.79213486718424        5.13934509705380        0.81784914864750
C            1.90654790147625        4.17588729494097        1.27784032578018
H            0.52676023944116        3.67381153988092        2.82231182968757
H            3.67953057712249        7.05037573663291        1.16371933146262
H            3.31701344762665        4.97133084477506       -0.10782732006612
H            0.88663319145647        5.74567393107219        4.08882113119011
C            1.68114756465011        2.92221261043747        0.49105645688340
C            0.99130318345820        3.18358290984317       -0.85035963016765
H            1.07406204557207        2.21773065783660        1.06682903686212
H            2.64056578986031        2.42210576235523        0.33181485528338
C            0.95365942498740        1.93171131860926       -1.69900585736965
O            2.54238237310300        7.71530650830199        3.40785624162524
H            1.98866445427949        7.74023019515807        4.21808990099772
O           -0.00542483463295        1.19912435010009       -1.56195394683697
N           -0.37115399236653        3.66498041743813       -0.67625255343141
H            1.53213260297199        3.97157910601445       -1.39316990791180
H           -0.97040821657697        2.86053418168636       -0.50854039995349
H           -0.43657552493021        4.29163640712219        0.11686755917217
N            1.97590405648433        1.63058087583700       -2.58174672926712
C            3.34357060251556        2.17375935461419       -2.48495053484074
H            1.92641881472451        0.73266170702225       -3.05627112704922
C            3.33330000956111        3.66337392368553       -2.63984730613090
O            4.20468200104774        4.41318817441897       -1.90631169088969
O            2.42413044943058        4.20794239969417       -3.51559681286034
H            1.84357475573029        3.49873963789602       -3.87819243693658
C            4.30674933852004        1.51570351869911       -3.49789445800027
H            3.69846377919267        1.93496529443864       -1.47337869504184
C            5.67563291044487        1.23939110847805       -2.95941714410871
H            4.38218864590602        2.14656127333392       -4.38930891981282
H            3.87813167150000        0.56940738734974       -3.84343800811246
C            6.45254591893652        2.04650995870680       -2.07386930750461
C            6.22241371310383        3.27616788647022       -1.44500645256115
C            7.17651191796659        3.79678166303841       -0.62336830658171
C            8.38552308515953        3.11803321961647       -0.39904532917579
C            8.64141954988712        1.91635485633569       -1.00115340214005
C            7.66861420406051        1.36995187011956       -1.84875999726908
H            5.17190121676150        3.86627543705470       -1.67453056428294
H            7.00011157552457        4.74521670766162       -0.14398387552697
H            9.12197643978712        3.55411042199056        0.25535642950540
H            9.56392209099282        1.38868814087259       -0.83802706230746
N            7.63223438084002        0.19825176157851       -2.58197908420290
C            6.43341239656488        0.13048526147486       -3.24770806733147
H            8.38194214437335       -0.49520535757772       -2.61025045791466
H            6.13521236519343       -0.67920646009295       -3.89392652517264
