48
Energy =
C     0.4052786    1.3846235    3.4176392 
C     0.6073122    0.4228918    2.4814900 
C     0.9331274    1.2473982    4.6630931 
C     1.6604898    0.1490874    4.9637745 
C     1.8684088   -0.8126552    4.0334598 
C     1.3415294   -0.6843156    2.7818779 
H     0.1843023    0.5501639    1.4888830 
H     2.0772840    0.0472929    5.9583940 
H     2.4624266   -1.6826167    4.3011057 
H    -0.1768093    2.2650238    3.1659689 
C     1.5791378   -1.7542493    1.7307038 
C     2.7993236   -1.4581179    0.8096514 
H     0.6481470   -1.8755925    1.1253973 
H     1.7285258   -2.7366800    2.2360817 
C     2.5723840   -0.2625628   -0.0643621 
O     0.7445551    2.2190844    5.6501438 
H     0.1938990    3.0151391    5.3458781 
O     2.9320099    1.0090215    0.3569264 
N     4.0386645   -1.3306868    1.6202176 
H     2.9029959   -2.2596943    0.0052967 
H     4.0429362   -0.4253212    2.1706088 
H     4.1086529   -2.1059430    2.3237897 
N     1.8002364   -0.4216314   -1.2527177 
C     2.5472568    0.0435940   -2.4540573 
H     0.9225929    0.1316691   -1.1016356 
C     1.8701914    1.2343971   -3.1392224 
O     1.3136404    1.0961652   -4.4045056 
O     1.7994077    2.4771135   -2.5143144 
H     2.2083070    2.4564035   -1.5900980 
C     2.7038718   -1.1570201   -3.4144068 
H     3.5691836    0.4261820   -2.2063608 
C     3.5402725   -2.2556804   -2.8033040 
H     3.1641757   -0.8390449   -4.3766129 
H     1.6954061   -1.5595413   -3.6678628 
C     4.8717827   -2.2563643   -2.6368974 
C     5.7997120   -1.3473094   -3.0315812 
C     7.1059731   -1.5750145   -2.7109841 
C     7.4596170   -2.6926856   -2.0060742 
C     6.5089734   -3.5898478   -1.6178039 
C     5.2244303   -3.3434065   -1.9493186 
H     5.5199750   -0.4612097   -3.5934120 
H     7.8702875   -0.8644513   -3.0173659 
H     8.5027088   -2.8667598   -1.7533932 
H     6.7716293   -4.4796837   -1.0558603 
N     4.0866490   -4.1322985   -1.6291635 
C     3.0411173   -3.3620614   -2.2259626 
H     4.0207824   -5.0071780   -1.0594339 
H     1.9896773   -3.5968863   -2.1187285 
