48
 energy: -9.079297984208 gnorm: 0.000885406703 xtb: 6.6.0 (2ccbbd7)
C            2.77939525184745       -2.84478042052717        0.12419149260653
C            1.55530217281197       -2.21966344624173        0.07636082462192
C            3.46122037542998       -3.16488064250270       -1.05085280791944
C            2.86162027624589       -2.85359634751753       -2.27033711485963
C            1.63896048240002       -2.22831923194153       -2.30902698518151
C            0.96839973931515       -1.89970304892072       -1.13877885509411
H            1.04757606074137       -1.95558975302053        0.98817596858969
H            3.38641223088889       -3.09629171537460       -3.17695062237150
H            1.20984843998232       -1.94174974324769       -3.25435959093444
H            3.23148483646320       -3.07975677591549        1.07106546527261
C           -0.30846924364737       -1.11745213341218       -1.19528059198103
C           -0.09532539977664        0.38322439216920       -0.95427507815340
H           -1.02943284983181       -1.52163904963769       -0.47776634148884
H           -0.76162773472243       -1.24627119399596       -2.18266769565690
C            1.02960372328720        0.89753760354955       -1.82267985813975
O            4.71012077171383       -3.75668946202947       -1.03667667734117
H            4.97174130388402       -3.95860574742319       -0.11184403227210
O            1.00555364233864        0.63102000685661       -3.00561027720723
N           -1.29741803275562        1.15798153025368       -1.22206527333723
H            0.18656201527562        0.54215417660988        0.09735557385134
H           -1.45855148696041        1.17208336619512       -2.22053136476431
H           -2.10547564765532        0.73447989123037       -0.78263110899019
N            2.02906348323886        1.63676892551211       -1.22060401894863
C            3.36502060905551        1.83168182610289       -1.81583987442986
H            1.98510735796099        1.81075057800321       -0.21568825371835
C            3.35855855835015        2.92967109967028       -2.84306656563473
O            4.42755976395029        3.77636721023645       -2.91089699409092
O            2.28420584704141        3.00627837211135       -3.69256894751514
H            1.72316039021708        2.21036726820242       -3.52365229268155
C            3.90950545819694        0.50645355943480       -2.37854284136266
H            4.03637628895629        2.15564249671925       -1.00584442024366
C            5.38340337745941        0.29496004431334       -2.22731919306822
H            3.62278278898800        0.41471973677705       -3.43087419367939
H            3.39581133493119       -0.31113030528960       -1.86340388525643
C            6.43836470395672        1.24625606106334       -2.38473160644279
C            6.46766964757032        2.62213059891345       -2.64804764084807
C            7.66725179115406        3.26251450891115       -2.73527570746753
C            8.87411997268986        2.56625007089720       -2.56051765271095
C            8.87990110568770        1.22518684182707       -2.29122826086313
C            7.65309343488849        0.55500734438393       -2.19796051855530
H            5.41099675273727        3.23426077737208       -2.77657216651849
H            7.68675337992696        4.32003995541609       -2.93995741453484
H            9.80745725841383        3.09880678390431       -2.63802006242449
H            9.79708497962660        0.68156294366650       -2.15220388367000
N            7.34249797257513       -0.76388853979718       -1.92618073910776
C            5.97978657269827       -0.91130734173267       -1.94719294931773
H            8.02735175706369       -1.50101035540299       -1.74900216491091
H            5.47122427890527       -1.84060655963739       -1.74405519365332
