48
 energy: -9.052965931523 gnorm: 0.000873897200 xtb: 6.6.0 (2ccbbd7)
C           -3.63969537758070        0.77159477481724        0.64376757056232
C           -2.32907460824210        0.50734304573563        0.32457802931969
C           -4.02220741411565        2.04154029294639        1.07615967538720
C           -3.04093040330699        3.02731090425390        1.17489930544836
C           -1.73308440542927        2.75365819120173        0.85187910538226
C           -1.35462630397487        1.49142726088449        0.41485714710445
H           -2.05323989461766       -0.47724767366146       -0.00652593935441
H           -3.33378694021351        4.00530285788290        1.51278849225534
H           -0.98558195886122        3.52354141454338        0.93974286520624
H           -4.38407038969923       -0.00029306797601        0.56461117426546
C            0.08458812728739        1.21452417023995        0.09044769624872
C            0.30061545813072        0.12905296671305       -0.98240885918783
H            0.61144281270182        0.92934491778387        1.00599248467308
H            0.55870732878107        2.14586732342386       -0.23766508733169
C            1.57344324568486        0.40452067330259       -1.82038014372809
O           -5.33061659571949        2.34106941154788        1.40553193184292
H           -5.89691673979079        1.54809662819119        1.28442238138888
O            1.62491866417258       -0.42656957068815       -3.01276766343812
N            0.38870543147251       -1.21039551375237       -0.41008718065048
H           -0.54794681387640        0.13523119974639       -1.68217827059947
H            1.36090467191147       -1.41217941748772       -0.19054002616901
H           -0.13964431240119       -1.28654320079996        0.45126798544460
N            2.80051039965044        0.28298687129422       -0.98562976757653
C            4.12745694244798        0.70974067774989       -1.47358285142825
H            2.63063945349970        0.84285394152382       -0.14117899260922
C            4.19996050384675        2.22674317980030       -1.41048346147228
O            3.40040454218035        2.77529545472478       -0.68094490333995
O            5.13661530096598        2.87760598169452       -2.14628927694583
H            5.70704909110742        2.25410026740102       -2.64494571872996
C            4.49665517551825        0.10650847229631       -2.83658789052226
H            4.85239598757399        0.33518043429778       -0.73335785405727
C            3.63338648254296        0.56608800865504       -3.95013821035397
H            4.40112028205393       -0.98280627773048       -2.76851513746036
H            5.54566445700510        0.29958314942048       -3.08032858114029
C            2.13709269945964        0.69591936511398       -3.78899866960471
C            1.52547871343516        1.68247150229336       -2.73462948201681
C            0.15649305347444        2.16503239711582       -3.12125428498308
C           -0.34418976420389        2.03990503611063       -4.35655950342653
C            0.40997779929611        1.46943889223915       -5.43833542933104
C            1.59743668080346        0.87733141892896       -5.18860970224625
H            2.21251515297920        2.48458697522251       -2.44290868475398
H           -0.44991977314464        2.60864713932317       -2.35011386359808
H           -1.33358269525158        2.41117376677372       -4.56704857135382
H            0.09059788058761        1.61263424720844       -6.45541129390481
N            2.69156047393518        0.64996534834165       -6.01793327402120
C            3.87957167197337        0.49116303320920       -5.27408783824135
H            2.68825549526491        0.87905455975031       -7.01177349123572
H            4.83814111770746        0.26697787086335       -5.71090059578924
