48
Energy =
C     2.4604127   -2.3863892    2.1669556 
C     2.4628010   -1.0609403    2.4564755 
C     1.2975009   -3.0141203    1.8475938 
C     0.1463204   -2.3069653    1.8060382 
C     0.1427753   -0.9814737    2.0927147 
C     1.3017663   -0.3492299    2.4281140 
H     3.4005790   -0.5754453    2.7159891 
H    -0.7730509   -2.8172461    1.5434917 
H    -0.7936404   -0.4320241    2.0574182 
H     3.3918721   -2.9416438    2.1905178 
C     1.2987823    1.1274262    2.7745837 
C     1.6461972    2.0475127    1.5795650 
H     2.0273188    1.3115133    3.5970389 
H     0.3092553    1.4219965    3.1873647 
C     3.0551112    1.8021129    1.0560369 
O     1.2572304   -4.3817098    1.5554552 
H     2.1583607   -4.8404363    1.6342067 
O     4.1266987    1.9303015    1.9388953 
N     0.6212370    1.9537481    0.5239747 
H     1.6624820    3.0963973    1.9547866 
H     0.6088330    0.9861032    0.1237550 
H    -0.3246991    2.1448140    0.9293736 
N     3.2695654    1.3955593   -0.3104207 
C     4.6690776    1.0133047   -0.6096614 
H     2.9848777    2.2110688   -0.9032173 
C     5.5659820    2.2322338   -0.8461292 
O     5.4192399    2.9660885   -2.0177105 
O     6.5444164    2.6229214    0.0662044 
H     6.4535661    2.1360360    0.9460466 
C     4.6682763    0.1049473   -1.8549164 
H     5.1038807    0.4195558    0.2279893 
C     3.9387662   -1.1959169   -1.6004222 
H     5.7164677   -0.1186144   -2.1568653 
H     4.2077202    0.6407319   -2.7143760 
C     2.6268991   -1.4340289   -1.7633954 
C     1.6366402   -0.6107696   -2.1943656 
C     0.3672751   -1.1045787   -2.2673134 
C     0.1100244   -2.4011205   -1.9174179 
C     1.1207572   -3.2107281   -1.4921430 
C     2.3670299   -2.6972460   -1.4236076 
H     1.8384439    0.4198376   -2.4696335 
H    -0.4428808   -0.4633110   -2.6064082 
H    -0.9034834   -2.7896445   -1.9777012 
H     0.9333868   -4.2398704   -1.2024379 
N     3.5480213   -3.3633861   -0.9989276 
C     4.5176559   -2.3164103   -1.1340761 
H     3.6655368   -4.3497040   -0.6724099 
H     5.5729707   -2.4209394   -0.8920849 
