48
Energy =
C     3.6997562   -5.3190646   -6.1047511 
C     3.1094050   -4.1080490   -6.2885365 
C     4.1668051   -5.6754355   -4.8751499 
C     4.0420966   -4.8154126   -3.8382695 
C     3.4538470   -3.6099306   -4.0287058 
C     2.9715660   -3.2504933   -5.2413400 
H     2.7544211   -3.8315890   -7.2776684 
H     4.4161748   -5.0999592   -2.8614059 
H     3.2832076   -2.7972389   -3.1930235 
H     3.8019300   -5.9986756   -6.9436622 
C     2.3670236   -1.8655082   -5.4258242 
C     1.4912880   -1.3835660   -4.2252597 
H     1.7453364   -1.8602945   -6.3479372 
H     3.1964021   -1.1405694   -5.5921253 
C     2.3166667   -1.0561281   -2.9539983 
O     4.7768549   -6.9145066   -4.6531538 
H     4.8367711   -7.4965421   -5.4810541 
O     3.1326484   -2.0466414   -2.4020025 
N     0.6486170   -0.2539911   -4.6586813 
H     0.8237478   -2.2220670   -3.9139852 
H     1.2274544    0.4453543   -5.1856289 
H    -0.0719344   -0.6016847   -5.3342139 
N     2.0081160    0.0672684   -2.1084852 
C     2.9822308    1.1769785   -2.2457409 
H     1.0348011    0.3922615   -2.3038873 
C     2.9309700    1.8519653   -3.6179160 
O     3.6207326    1.3112950   -4.6967791 
O     2.1213797    2.9645985   -3.8517617 
H     1.6109606    3.2486902   -3.0297485 
C     4.4082415    0.7090153   -1.8599289 
H     2.6885023    1.9497168   -1.5027152 
C     5.2999500    1.8684626   -1.4715316 
H     4.8682838    0.1268125   -2.6860785 
H     4.3387817    0.0055323   -0.9989465 
C     6.2014945    2.4987485   -2.2426443 
C     6.5777598    2.2580478   -3.5250462 
C     7.5278692    3.0602910   -4.0844694 
C     8.0847355    4.0791147   -3.3625686 
C     7.6946374    4.3014601   -2.0755834 
C     6.7521309    3.4944132   -1.5443076 
H     6.1429560    1.4487060   -4.1030109 
H     7.8416354    2.8870057   -5.1110289 
H     8.8410021    4.7139836   -3.8171918 
H     8.1263403    5.1052356   -1.4891195 
N     6.2094008    3.5588826   -0.2327618 
C     5.2754596    2.4724945   -0.2700311 
H     6.4310052    4.2226388    0.5444595 
H     4.6330918    2.1848244    0.5593931 
