48
 energy: -9.279010470859 gnorm: 0.000628963858 xtb: 6.6.0 (2ccbbd7)
C            1.63243369766003        5.09269225230376        3.97481284458936
C            1.23728207385014        4.30884889187334        2.91680947513725
C            2.10366962685321        4.51083911666771        5.15213366627225
C            2.16141933868227        3.11933312239599        5.22441270776982
C            1.76507231386440        2.34243880331802        4.16225157157737
C            1.29407919924629        2.92418685567160        2.99472748790103
H            0.87934089999038        4.76947347268763        2.01185874961479
H            2.52581986473168        2.67090104154194        6.13128941662588
H            1.82015712086552        1.26933121751922        4.22757267209328
H            1.58294814296271        6.16449001576614        3.90415219175854
C            0.91411448959513        2.07401121785353        1.82325334775243
C            2.12464588499040        1.50954488509136        1.07188462164661
H            0.30733705572411        2.65382964470068        1.12139082920202
H            0.27300527850591        1.24916144928367        2.15270259287134
C            1.64351368615621        0.59373594796382       -0.03936966221326
O            2.51177196908184        5.26948451074017        6.23247637555613
H            2.40605079692797        6.22438449974234        6.03207140377497
O            0.69409081013754       -0.12706140291876        0.20539922728734
N            2.98662496414843        2.57761019977783        0.58610905569580
H            2.72144950144414        0.90139970363015        1.76875381867428
H            2.62163798574732        2.92328273673958       -0.29687069285993
H            3.02049338451752        3.34530599275985        1.24104164965185
N            2.23033536890897        0.56531579855150       -1.29166030780354
C            3.56401032471158        1.07018982993999       -1.65439498992952
H            1.79793961197998       -0.00653769682589       -2.01466832175592
C            3.46573061421326        2.46184201971111       -2.27496518236369
O            2.38007353230406        3.00387537076892       -2.28482088840196
O            4.60367348538053        3.05370949861074       -2.72559712732748
H            5.39023038448265        2.47953619508465       -2.60677245474051
C            4.26748473661962        0.04491871327890       -2.55146515012004
H            4.13705998885300        1.16640404388087       -0.72288994088350
C            5.70455854331210        0.35746128255543       -2.77915442909441
H            3.74204609026826       -0.00693823952764       -3.50869962246701
H            4.18182988495171       -0.95000391296637       -2.10292344521955
C            6.30890093703368        0.70424944024108       -4.02758342204397
C            5.84912365285074        0.68007249976009       -5.35569681240200
C            6.68136160648108        1.12441879978386       -6.34558603893249
C            7.96894461613807        1.60302092307650       -6.05354825832194
C            8.43284468847714        1.64751556171786       -4.76754962473569
C            7.59538883067006        1.19793310194512       -3.73944276915233
H            4.85891153626800        0.32324935754194       -5.57612195081185
H            6.34315870811992        1.11322569046381       -7.36847434303188
H            8.59841473615872        1.94689389087554       -6.85754287195873
H            9.41267335661959        2.02295423242412       -4.53277851654371
N            7.75392454981759        1.15832339079559       -2.36555151027342
C            6.62911984263667        0.61764226177924       -1.79641531269687
H            8.60362743117462        1.44103616406034       -1.87337385885703
H            6.47282006765038        0.49906942569956       -0.73625552823552
