48
 energy: -9.087343248383 gnorm: 0.000596711340 xtb: 6.6.0 (2ccbbd7)
C            0.33335510960128       -0.37501730417858       -5.00203403373611
C            0.51327720939874        0.08097969781227       -3.71835814234132
C           -0.66597283446186       -1.30343142982511       -5.29174028973488
C           -1.47161731094598       -1.74866533826088       -4.24497571997695
C           -1.28394917993799       -1.28357264529854       -2.96500202435904
C           -0.29301302836193       -0.35429562097153       -2.67601257031039
H            1.28442076728850        0.80180707658503       -3.52040929653302
H           -2.24114665948402       -2.46709612057930       -4.46427889478203
H           -1.90952146365278       -1.64663392799052       -2.16754301328307
H            0.96355609279038       -0.01839081696187       -5.79712920816738
C           -0.09139334609305        0.08453521060917       -1.25151884253065
C            0.44253617114224        1.51375320164561       -1.03764854316835
H            0.57730229242108       -0.62894195081740       -0.75949639916101
H           -1.05243819580483       -0.00121215695660       -0.73330022756024
C            1.86744938821602        1.65661964790654       -1.44307063397883
O           -0.87108160772474       -1.78689985823736       -6.57051075687153
H           -0.23270320093235       -1.37289454050275       -7.19110260050236
O            2.21366072942362        2.25929531758951       -2.62336345967596
N           -0.37922890503249        2.51027040309583       -1.71142685444859
H            0.39702497642322        1.74212976387255        0.04080709539017
H            0.05887761885775        3.41706603135653       -1.61373860410406
H           -0.37650107327412        2.31024221912997       -2.70080668829411
N            2.93767300787228        1.19114319981137       -0.63889893236434
C            4.27554460688569        1.45171176456378       -1.18098455009898
H            2.86136675785604        0.22914240265634       -0.31196030160595
C            4.33418949169708        2.86105317765600       -1.70056362303875
O            3.29715680226659        3.27985733673526       -2.43671759937461
O            5.43005984346246        3.64684032371548       -1.42172562858380
H            6.08419092493176        3.15243346098716       -0.88133512250022
C            4.61362442270970        0.46642677417919       -2.30127855396947
H            5.00510404051962        1.34761853356451       -0.36449003037634
C            5.98789159745205        0.65008148458731       -2.85092300418180
H            3.88419377860063        0.60090760082748       -3.10596158012726
H            4.48889910377897       -0.56185456260981       -1.94871649896334
C            7.14869368773410       -0.11511310376639       -2.52988415744433
C            7.36223624882083       -1.22900217363824       -1.69933967449221
C            8.62784087870020       -1.73771864124302       -1.59790661411954
C            9.70018175352551       -1.16621792578458       -2.30262887889836
C            9.51609435619807       -0.08077065547701       -3.11507181714514
C            8.22735091720654        0.45477423068791       -3.23437832795720
H            6.53926898591016       -1.66183042356499       -1.15905579392757
H            8.80812215670323       -2.59171162188482       -0.96621406855141
H           10.68487437405568       -1.59127629050435       -2.19921281311257
H           10.33142236326473        0.36482581273916       -3.65611350006676
N            7.73430969814073        1.53097547653010       -3.95207679920048
C            6.38797553945185        1.64453070082226       -3.70876992237664
H            8.29812875798902        2.15352510426184       -4.53364159570293
H            5.74954548569635        2.41950640628189       -4.10249605135776
