48
Energy =
C    -3.9420525    1.1151542    1.0915572 
C    -2.6074117    1.0730817    0.8487041 
C    -4.6360926    2.2686964    0.8990868 
C    -3.9888520    3.3730007    0.4627059 
C    -2.6545850    3.3367791    0.2180238 
C    -1.9540322    2.1861932    0.4148663 
H    -2.0685948    0.1416898    1.0005666 
H    -4.5539125    4.2860311    0.3098629 
H    -2.1536626    4.2339735   -0.1373867 
H    -4.4534310    0.2235333    1.4378920 
C    -0.4704577    2.1410932    0.1232956 
C    -0.1861350    1.9685292   -1.3868615 
H     0.0164473    1.3271734    0.7031547 
H    -0.0073222    3.0892172    0.4830635 
C     1.2842839    2.1988023   -1.6994049 
O    -6.0117207    2.3456333    1.1398155 
H    -6.4231742    1.4770674    1.4632771 
O     1.6435579    3.4173801   -2.2572304 
N    -0.6408781    0.6488136   -1.8624861 
H    -0.7275187    2.7673515   -1.9513659 
H    -0.3657392   -0.1095647   -1.1963632 
H    -1.6875554    0.6421413   -1.9195265 
N     2.2792027    1.2321781   -1.2918603 
C     3.7409961    1.3638755   -1.5364440 
H     1.9350767    0.4412831   -0.7084977 
C     4.2230836    2.7120375   -2.0923062 
O     4.8471917    3.6114137   -1.2337804 
O     4.1470247    3.0252786   -3.4511433 
H     3.4979184    2.4139161   -3.9242240 
C     4.2099395    0.1658987   -2.4148718 
H     4.2557670    1.3083092   -0.5503112 
C     4.7832448   -0.9998025   -1.6206657 
H     4.9798662    0.5183808   -3.1338205 
H     3.3640822   -0.2090252   -3.0338317 
C     5.8213963   -1.7797819   -1.9801571 
C     6.6246143   -1.7208832   -3.0765262 
C     7.6161303   -2.6483621   -3.2073114 
C     7.7886486   -3.6143390   -2.2561424 
C     6.9692729   -3.6603656   -1.1686718 
C     5.9974285   -2.7304341   -1.0594105 
H     6.4942901   -0.9637292   -3.8422542 
H     8.2719317   -2.6200499   -4.0744448 
H     8.5804087   -4.3508150   -2.3688525 
H     7.0887972   -4.4240554   -0.4076818 
N     5.0367819   -2.6185757   -0.0217445 
C     4.2826794   -1.4854575   -0.4669245 
H     4.9150174   -3.2076780    0.8337086 
H     3.4231014   -1.0936133    0.0638359 
