48
Energy =
C    -1.4696560   -2.4356279   -0.6443795 
C    -0.1363435   -2.2438802   -0.8076697 
C    -2.0796523   -3.5113628   -1.2097307 
C    -1.3500292   -4.3875296   -1.9372797 
C    -0.0162354   -4.2007390   -2.1033874 
C     0.6002377   -3.1277197   -1.5366379 
H     0.3369569   -1.3790929   -0.3511005 
H    -1.8483432   -5.2391100   -2.3877634 
H     0.5527464   -4.9120342   -2.6968094 
H    -2.0471253   -1.7267348   -0.0612833 
C     2.0851760   -2.9110638   -1.7380165 
C     2.4081084   -2.3684457   -3.1470411 
H     2.6133024   -3.8798025   -1.5978347 
H     2.4917824   -2.2203611   -0.9670852 
C     1.7481092   -1.0216782   -3.4292209 
O    -3.4512190   -3.7402245   -1.0575315 
H    -3.9314657   -3.0338293   -0.5109866 
O     0.8626883   -0.9073816   -4.4955138 
N     3.8694204   -2.3097171   -3.3532405 
H     1.9746605   -3.0730180   -3.8971001 
H     4.3897836   -2.2353157   -2.4474900 
H     4.1846093   -3.2108603   -3.7857690 
N     1.8586691    0.0912377   -2.5288275 
C     3.1916417    0.6820375   -2.2937954 
H     0.9780663    0.4383230   -2.0887144 
C     3.1500606    1.8014377   -1.2566057 
O     4.1583836    1.8731069   -0.3041283 
O     2.1566914    2.7819323   -1.2457293 
H     1.5538756    2.7125946   -2.0518262 
C     3.8656742    1.1177855   -3.6203001 
H     3.8374615   -0.0933618   -1.8307819 
C     3.1527585    2.2605929   -4.3132985 
H     3.9272231    0.2413488   -4.3091289 
H     4.9223125    1.3987942   -3.4205196 
C     3.3872508    3.5733617   -4.1493570 
C     4.2887239    4.2059177   -3.3539940 
C     4.3160959    5.5694608   -3.3614893 
C     3.4535819    6.2736810   -4.1550837 
C     2.5562681    5.6179300   -4.9442606 
C     2.5484413    4.2686472   -4.9188098 
H     4.9674812    3.6524620   -2.7111629 
H     5.0231526    6.0985862   -2.7270549 
H     3.4797236    7.3603413   -4.1523743 
H     1.8615046    6.1612171   -5.5755490 
N     1.6924589    3.4021045   -5.6472088 
C     2.1482902    2.1198029   -5.1969941 
H     0.9344359    3.6324073   -6.3292557 
H     1.7381069    1.1712171   -5.5350285 
