48
Energy =
C    -1.3556533   -0.1673221   -1.6819670 
C    -0.0354986   -0.4639627   -1.5707699 
C    -2.1558608   -0.1880355   -0.5831812 
C    -1.6291723   -0.5038177    0.6206981 
C    -0.3104940   -0.7996210    0.7385218 
C     0.4965702   -0.7818488   -0.3584159 
H     0.5894372   -0.4415442   -2.4583949 
H    -2.2777839   -0.5141792    1.4889295 
H     0.0924213   -1.0471868    1.7164600 
H    -1.7701163    0.0881490   -2.6509341 
C     1.9717233   -1.1027739   -0.2294147 
C     2.8587363    0.1503309   -0.0154238 
H     2.3129700   -1.6456932   -1.1389262 
H     2.1302034   -1.8122764    0.6124014 
C     2.8187525    1.1041351   -1.2078731 
O    -3.5201538    0.1085564   -0.6638058 
H    -3.8317838    0.3571508   -1.5959711 
O     2.2865783    2.3839885   -1.0819856 
N     2.5254241    0.8235286    1.2512216 
H     3.9140643   -0.1926146    0.0554385 
H     1.5840841    1.2795717    1.1766113 
H     2.4809740    0.1299997    2.0331494 
N     3.1575331    0.6250111   -2.5199401 
C     4.6257783    0.6526795   -2.7553773 
H     2.6544905    1.2572327   -3.1830555 
C     5.1425477    1.9408332   -3.4116716 
O     6.2696365    2.5515049   -2.8775943 
O     4.5762280    2.4953261   -4.5608806 
H     3.8358725    1.9294914   -4.9405453 
C     5.0414617   -0.6221468   -3.5191325 
H     5.1820307    0.6018399   -1.7884925 
C     4.3544646   -0.7771027   -4.8576519 
H     4.7948916   -1.5066038   -2.8904618 
H     6.1464522   -0.6451312   -3.6482524 
C     4.8232521   -0.4047609   -6.0595937 
C     5.9942228    0.1980214   -6.3907288 
C     6.2234210    0.4928897   -7.7025446 
C     5.2897734    0.1853978   -8.6533427 
C     4.1190694   -0.4154456   -8.2968668 
C     3.9159324   -0.6972723   -6.9927666 
H     6.7298582    0.4620222   -5.6363873 
H     7.1499281    0.9835742   -7.9915021 
H     5.4784588    0.4280132   -9.6960961 
H     3.3643221   -0.6585593   -9.0367853 
N     2.7655851   -1.2953115   -6.4125498 
C     3.1317908   -1.3078533   -5.0261284 
H     1.8900176   -1.6291514   -6.8769402 
H     2.5060093   -1.6883994   -4.2210707 
