48
 energy: -9.067444878898 gnorm: 0.000458470975 xtb: 6.6.0 (2ccbbd7)
C           -1.69894363846323        0.79990848103680        0.66254736333505
C           -0.92493673316262        1.85667331280629        0.24705134448566
C           -1.54425531438293        0.27074469243530        1.94425321055369
C           -0.58451058397818        0.83935450066422        2.78159834719051
C            0.18374703161713        1.89748327324896        2.35728458354022
C            0.02051909001853        2.42807114735179        1.08566387635102
H           -1.02879723312335        2.24538168663638       -0.75149829714001
H           -0.46274530522295        0.42914462268562        3.76809798746169
H            0.92090312561670        2.32550799189947        3.01468862489734
H           -2.42801621325870        0.36780085707261        0.00077431938013
C            0.85302516151413        3.58536809522316        0.62117519676830
C            1.94744636513815        3.19567879681135       -0.37983552580308
H            1.30359725350480        4.08182219172129        1.48624430595356
H            0.20454430673341        4.33146456633907        0.15159386660876
C            1.36047166362598        2.80153791239469       -1.71876353515715
O           -2.30630208688874       -0.78973024566665        2.39701732732169
H           -2.93289397495270       -1.07532975976003        1.69739660184541
O            0.27101543618261        3.22481866149365       -2.05750875261456
N            2.91515190927889        4.26722633298057       -0.57433699244863
H            2.49057244456250        2.32394268530555        0.01658936698317
H            2.47715601136249        5.02874540782834       -1.07453583309901
H            3.24223434916088        4.62858417556896        0.31228250627061
N            2.12193065392099        2.02017922926676       -2.58477879978103
C            3.52850944437424        2.35613782863721       -2.84590076360170
H            1.67589188702736        1.75859333182247       -3.46080755735406
C            3.60042198342045        3.64439078413131       -3.62608873164980
O            4.81123784716417        4.21329555494051       -3.88564663044102
O            2.42402065378722        4.22493170857687       -4.06485124382599
H            1.65513106159233        3.92885496245547       -3.51333665678470
C            4.24357557434256        1.18337904249036       -3.55749799194025
H            4.00167286434797        2.52051322898029       -1.86843438183304
C            5.59569116202097        0.87360791490975       -3.00235458610329
H            4.32248403905911        1.39796549635658       -4.62812014348530
H            3.61860474219441        0.28755917103437       -3.47706112857711
C            6.62334400999374        1.81641828471672       -2.72044011424183
C            6.69012140517124        3.20274585305584       -2.87528334671227
C            7.82647391082963        3.85683784180043       -2.50565031659837
C            8.92203861910954        3.15371390253584       -1.97494648744608
C            8.88265053526754        1.79411754026354       -1.81620865167551
C            7.71978968773579        1.10851885386712       -2.19270314861900
H            5.70619360014154        3.73811370491623       -3.38571264233979
H            7.88425375003852        4.92531030584864       -2.62884972262180
H            9.80847300538893        3.69662222954388       -1.69190607515217
H            9.71715110820139        1.24851024301551       -1.41386130688143
N            7.36728954851084       -0.22985379154402       -2.16797601306669
C            6.08916203600982       -0.36125529626564       -2.65760634293818
H            7.97303582073428       -0.98405880677643       -1.83947756677589
H            5.55640000081909       -1.29424505544048       -2.74521588886258
