48
Energy =
C    -3.1723705    2.2360379   -1.6201122 
C    -1.8605676    2.4880525   -1.3797171 
C    -4.0652601    2.2241298   -0.5943266 
C    -3.6381236    2.4653097    0.6661152 
C    -2.3277110    2.7182980    0.9119584 
C    -1.4307941    2.7336592   -0.1116696 
H    -1.1569536    2.4942768   -2.2082874 
H    -4.3591098    2.4521477    1.4759495 
H    -2.0029596    2.9049478    1.9321588 
H    -3.5052845    2.0435980   -2.6341676 
C     0.0338996    2.9973556    0.1562306 
C     0.8719462    1.6944589    0.1891373 
H     0.1724187    3.5536133    1.1092801 
H     0.4283476    3.6728984   -0.6372219 
C     2.3674632    1.9663753    0.1789645 
O    -5.4234432    1.9656271   -0.8075450 
H    -5.6634596    1.8018971   -1.7789597 
O     2.8103458    3.1191916    0.0718818 
N     0.5086814    0.8754647    1.3583330 
H     0.6855158    1.1137784   -0.7433980 
H     0.5997562    1.4488055    2.2304021 
H    -0.4915198    0.5756961    1.2830705 
N     3.2920387    0.8713283    0.1175378 
C     4.4316035    1.0939362   -0.7866921 
H     3.1163326   -0.0017076    0.6651101 
C     4.5905502    2.5962599   -1.0587718 
O     5.5608266    3.0600684   -1.9405775 
O     3.8550883    3.4103660   -0.4780760 
H     3.6976829    3.3063299    0.5030231 
C     4.1816220    0.2702906   -2.0667457 
H     5.3640619    0.7557683   -0.2849167 
C     5.4086408    0.1780732   -2.9489906 
H     3.3170518    0.6945491   -2.6207499 
H     3.8842969   -0.7624814   -1.7798958 
C     5.6542594    0.8584805   -4.0819457 
C     4.9036851    1.7923668   -4.7227623 
C     5.3905542    2.3374399   -5.8743223 
C     6.6053386    1.9459415   -6.3645847 
C     7.3428574    1.0090836   -5.7041335 
C     6.8409623    0.4853316   -4.5660105 
H     3.9478013    2.1217419   -4.3282587 
H     4.8133215    3.0947661   -6.3992067 
H     6.9881431    2.3892247   -7.2803853 
H     8.3109277    0.6919051   -6.0765565 
N     7.4471969   -0.4931470   -3.7331068 
C     6.4553201   -0.6315949   -2.7079758 
H     8.3643452   -0.9828408   -3.8454078 
H     6.5416953   -1.3023585   -1.8565897 
