48
Energy =
C     0.9428650    1.8719862   -6.4838723 
C     0.6350064    1.9637794   -5.1661878 
C     0.1276518    1.1864713   -7.3291360 
C    -0.9886887    0.5937586   -6.8468939 
C    -1.3002685    0.6814408   -5.5285818 
C    -0.4923216    1.3746082   -4.6804663 
H     1.3016031    2.5043208   -4.4998187 
H    -1.6267382    0.0442358   -7.5301042 
H    -2.1959355    0.1901559   -5.1581896 
H     1.8456760    2.3449014   -6.8559661 
C    -0.8194794    1.4493274   -3.2042791 
C    -0.2701645    0.2270427   -2.4347895 
H    -1.9224314    1.5037557   -3.0728834 
H    -0.4080343    2.3866606   -2.7669782 
C     1.2494995    0.1396430   -2.4980191 
O     0.4127430    1.0755476   -8.6941799 
H     1.2719897    1.5377972   -8.9712128 
O     1.7905597   -0.8676837   -3.2891586 
N    -0.7543828    0.2534987   -1.0420165 
H    -0.6361867   -0.7059116   -2.9288042 
H    -0.6459302    1.2111456   -0.6317557 
H    -1.7792657    0.0364448   -1.0309099 
N     2.0478860    1.2327722   -1.9734581 
C     3.5438919    1.2178803   -1.9550924 
H     1.7076482    1.3781772   -0.9960826 
C     4.0683657    2.5238075   -2.5518102 
O     3.7176277    2.8772358   -3.8496538 
O     4.9459991    3.3567891   -1.8544755 
H     5.1898873    2.9973849   -0.9450820 
C     4.2251679    0.0021066   -2.6298628 
H     3.8697144    1.2003050   -0.8901890 
C     5.7304287    0.0219185   -2.4545017 
H     3.9634155   -0.0293437   -3.7116988 
H     3.8478692   -0.9376447   -2.1704059 
C     6.6437065    0.5146189   -3.3087857 
C     6.4807350    1.0836025   -4.5314132 
C     7.5891256    1.5130929   -5.1997179 
C     8.8302746    1.3689177   -4.6446495 
C     8.9706277    0.7954829   -3.4160966 
C     7.8589997    0.3788680   -2.7740477 
H     5.4980181    1.2091588   -4.9760613 
H     7.4828539    1.9783027   -6.1769653 
H     9.7079181    1.7174435   -5.1833737 
H     9.9477889    0.6776741   -2.9601594 
N     7.7866049   -0.2308587   -1.4928187 
C     6.3732588   -0.4251447   -1.3605893 
H     8.5590809   -0.4693347   -0.8291141 
H     5.8936221   -0.8683901   -0.4905173 
