48
Energy =
C     1.5396939   -2.0569608    0.1775700 
C     1.5757884   -0.9323290   -0.5812733 
C     0.4972701   -2.2765889    1.0230259 
C    -0.4983495   -1.3649935    1.1072305 
C    -0.4656708   -0.2376170    0.3518561 
C     0.5687322   -0.0189185   -0.5054393 
H     2.4237468   -0.7556310   -1.2385255 
H    -1.3195223   -1.5482278    1.7914932 
H    -1.2709350    0.4865742    0.4418020 
H     2.3496051   -2.7758034    0.1107162 
C     0.6170722    1.2441074   -1.3390755 
C     1.4347064    2.3603779   -0.6476330 
H    -0.4172945    1.6085527   -1.5233956 
H     1.0417607    1.0216024   -2.3423544 
C     2.9069608    1.9968146   -0.4837666 
O     0.4250033   -3.4275992    1.8142824 
H     1.2242895   -4.0437610    1.7151210 
O     3.3510719    1.6868349    0.7993548 
N     1.2733732    3.6261860   -1.3825290 
H     1.0515010    2.4998173    0.3924415 
H     1.5173598    3.5030581   -2.3929859 
H     0.2762427    3.9413471   -1.3334182 
N     3.6713452    1.5074387   -1.6050153 
C     5.1195252    1.8217334   -1.4727188 
H     3.2912655    1.9533269   -2.4703688 
C     5.5829575    2.9344078   -2.3932602 
O     6.4005062    2.5723341   -3.4560300 
O     5.2629205    4.2637139   -2.1769073 
H     5.6889581    4.8268970   -2.8979713 
C     5.9290353    0.5258387   -1.7526376 
H     5.3909237    2.1799184   -0.4499300 
C     5.5722947   -0.1117422   -3.0905612 
H     5.7286552   -0.1894347   -0.9243089 
H     7.0211323    0.7365642   -1.7301077 
C     5.7046972    0.4019323   -4.3439080 
C     6.2800407    1.6026046   -4.8039423 
C     6.1464224    1.8595467   -6.1479255 
C     5.4848890    1.0073841   -6.9803391 
C     4.9494029   -0.1430618   -6.5034903 
C     5.0768156   -0.4213413   -5.1937392 
H     7.0883001    2.5157988   -4.3308155 
H     6.5901810    2.7607851   -6.5650249 
H     5.3944044    1.2455024   -8.0375301 
H     4.4205115   -0.8268267   -7.1592883 
N     4.5400753   -1.5541344   -4.5281961 
C     4.8945269   -1.2692208   -3.1743946 
H     4.0175081   -2.3705252   -4.9208053 
H     4.5936124   -1.8751328   -2.3234764 
