48
Energy =
C     1.0049669   -3.2808540   -1.3123826 
C     0.8463818   -2.0928043   -0.6784653 
C     1.8737196   -4.2053578   -0.8245883 
C     2.5709481   -3.9375165    0.3027700 
C     2.4081205   -2.7546438    0.9480885 
C     1.5487300   -1.8195372    0.4572264 
H     0.1521412   -1.3652134   -1.0891994 
H     3.2619421   -4.6827104    0.6820637 
H     2.9768607   -2.5615121    1.8535415 
H     0.4412073   -3.4856639   -2.2160417 
C     1.3752397   -0.4903900    1.1670643 
C     2.6695387    0.3601863    1.1864020 
H     1.0566260   -0.6873569    2.2143155 
H     0.5536362    0.0989681    0.7026766 
C     3.3317496    0.4664279   -0.1756029 
O     2.0680790   -5.4352565   -1.4616933 
H     1.4961021   -5.5668153   -2.2883543 
O     4.5964987   -0.0755991   -0.3711704 
N     2.3775768    1.6928247    1.7407135 
H     3.4278564   -0.1395238    1.8351620 
H     1.6129887    2.1569346    1.1926216 
H     2.0363788    1.5990301    2.7269530 
N     2.6459323    1.0493669   -1.2869430 
C     3.2777083    2.2092896   -1.9369961 
H     1.7158710    0.6786076   -1.5765955 
C     2.3319742    3.4054637   -1.9426260 
O     1.5375599    3.6743975   -3.0496341 
O     2.2021699    4.2269338   -0.8233272 
H     2.7864759    3.9233044   -0.0566029 
C     3.8009309    1.8118991   -3.3424186 
H     4.1652413    2.5505828   -1.3527130 
C     2.8509988    0.9297961   -4.1333782 
H     4.7690416    1.2783961   -3.2204720 
H     4.0349511    2.7268649   -3.9317077 
C     2.8165696   -0.4146946   -4.1398453 
C     3.5883848   -1.3113252   -3.4723896 
C     3.3557990   -2.6405894   -3.6664822 
C     2.3661990   -3.0519080   -4.5150350 
C     1.5989705   -2.1353691   -5.1702612 
C     1.8483729   -0.8254667   -4.9608410 
H     4.3763857   -0.9911226   -2.7978802 
H     3.9608112   -3.3766497   -3.1408087 
H     2.1927520   -4.1139974   -4.6671939 
H     0.8110216   -2.4441601   -5.8485994 
N     1.1753233    0.2791011   -5.5464876 
C     1.8874567    1.3780793   -4.9579482 
H     0.3770725    0.2883109   -6.2225514 
H     1.6778372    2.4287906   -5.1571776 
