48
Energy =
C    -2.9288653    2.4271732    0.5513670 
C    -1.7085283    1.8331595    0.5573498 
C    -4.0054580    1.7718564    0.0406334 
C    -3.8525147    0.5255413   -0.4617618 
C    -2.6344551   -0.0728744   -0.4589742 
C    -1.5545066    0.5774256    0.0545401 
H    -0.8560324    2.3691708    0.9666361 
H    -4.7183792    0.0141073   -0.8676652 
H    -2.5312674   -1.0728398   -0.8720076 
H    -3.0412506    3.4276795    0.9548021 
C    -0.1905327   -0.0760222    0.0453474 
C     0.7140639    0.4724158   -1.0827589 
H    -0.2808430   -1.1820157   -0.0532437 
H     0.2938776    0.0990951    1.0322750 
C     2.1335853   -0.0395030   -0.9278449 
O    -5.2764876    2.3552766    0.0186520 
H    -5.3073571    3.2901760    0.4103371 
O     2.4206797   -1.3856619   -1.1296527 
N     0.1786876    0.1138016   -2.4064775 
H     0.7752436    1.5840242   -1.0057980 
H     0.0355091   -0.9237173   -2.4583051 
H    -0.7530539    0.5697581   -2.5477683 
N     3.1462647    0.8039781   -0.3646457 
C     4.2150837    1.3208661   -1.2419202 
H     3.1075249    1.0265913    0.6554634 
C     3.7398825    2.4827040   -2.1146182 
O     4.2598815    3.7504843   -1.8871034 
O     2.8023434    2.3261952   -3.1374580 
H     2.4582512    1.3809263   -3.2045746 
C     4.8767316    0.1702539   -2.0387206 
H     4.9972049    1.7589108   -0.5795503 
C     6.2038754    0.5889775   -2.6334400 
H     4.1978783   -0.2215944   -2.8264421 
H     5.0435141   -0.6896412   -1.3497345 
C     6.4248904    1.0948534   -3.8585163 
C     5.5579706    1.3305732   -4.8769147 
C     6.0449600    1.8660938   -6.0329032 
C     7.3762001    2.1535099   -6.1543436 
C     8.2287453    1.9078917   -5.1195190 
C     7.7228381    1.3780313   -3.9860252 
H     4.5000053    1.1095004   -4.7864431 
H     5.3688103    2.0706998   -6.8598514 
H     7.7554347    2.5839203   -7.0778531 
H     9.2866817    2.1341253   -5.1974712 
N     8.4325194    1.0579173   -2.7980250 
C     7.3740410    0.5588967   -1.9712788 
H     9.4521218    1.1576296   -2.5882998 
H     7.5039340    0.2202886   -0.9455024 
