48
Energy =
C     1.5466595    4.4266767    0.0785719 
C     0.4623449    4.2809144   -0.7246356 
C     1.8948214    3.4371103    0.9420387 
C     1.1466625    2.3138810    1.0071591 
C     0.0547754    2.1677000    0.2158879 
C    -0.2894995    3.1462225   -0.6686101 
H     0.2021011    5.0797510   -1.4156784 
H     1.4314587    1.5337551    1.7045591 
H    -0.5351899    1.2635069    0.3043860 
H     2.1366337    5.3358678    0.0256445 
C    -1.4900420    2.9884523   -1.5858329 
C    -1.2388024    2.1099326   -2.8455149 
H    -1.8285283    3.9936034   -1.9255751 
H    -2.3490528    2.5817919   -1.0082551 
C     0.0985641    2.3624858   -3.5377301 
O     3.0130622    3.5498553    1.7731501 
H     3.5119710    4.4284211    1.6803064 
O     0.0789665    2.6605748   -4.8959979 
N    -1.4221675    0.6709964   -2.5614633 
H    -2.0073855    2.4160779   -3.5961311 
H    -1.4746601    0.4603850   -1.5415182 
H    -2.3250915    0.3419744   -2.9786381 
N     1.3146808    1.8660022   -2.9466842 
C     2.6339393    2.4913598   -3.2070292 
H     1.2286625    1.0658395   -2.2815149 
C     2.6047448    3.7190675   -4.1322990 
O     2.8086226    3.5695986   -5.5006136 
O     2.4297971    5.0095492   -3.6254662 
H     2.3614178    5.0151911   -2.6226395 
C     3.5964951    1.4094496   -3.7461394 
H     3.0421565    2.8516435   -2.2375219 
C     3.8834028    0.3399143   -2.7137005 
H     4.5617091    1.8746182   -4.0489659 
H     3.1676439    0.9587109   -4.6689659 
C     3.2630453   -0.8439821   -2.5761866 
C     2.2613760   -1.3959353   -3.3095090 
C     1.7895001   -2.6218018   -2.9433894 
C     2.3176319   -3.2707392   -1.8618825 
C     3.3194531   -2.6958621   -1.1377075 
C     3.7705105   -1.4828107   -1.5205067 
H     1.8300618   -0.8782522   -4.1615448 
H     0.9866914   -3.0827185   -3.5136927 
H     1.9352994   -4.2474104   -1.5767526 
H     3.7457641   -3.1944182   -0.2740293 
N     4.7830980   -0.7073860   -0.8948366 
C     4.7889013    0.4595543   -1.7270214 
H     5.3641012   -0.9281372   -0.0539035 
H     5.4284899    1.3245171   -1.5674551 
