48
Energy =
C    -3.8205322    2.0339940   -0.7768553 
C    -2.5973747    2.5846915   -0.9826171 
C    -4.1496335    0.8570531   -1.3737605 
C    -3.2496735    0.2374834   -2.1711682 
C    -2.0254518    0.7841986   -2.3809417 
C    -1.6963595    1.9675549   -1.7953020 
H    -2.3455389    3.5210341   -0.4917485 
H    -3.5208266   -0.7040750   -2.6359591 
H    -1.3096772    0.2667281   -3.0156358 
H    -4.5329774    2.5356288   -0.1311787 
C    -0.3209030    2.5581798   -2.0045217 
C     0.7216735    1.9277985   -1.0354404 
H    -0.3659809    3.6633519   -1.8819940 
H    -0.0261983    2.4087627   -3.0681785 
C     1.8173610    1.1924994   -1.7846401 
O    -5.4011808    0.2625813   -1.1819466 
H    -6.0176665    0.7882711   -0.5721523 
O     1.9059840   -0.1936972   -1.7057272 
N     1.2869919    2.9574246   -0.1479964 
H     0.2414285    1.1432838   -0.4007803 
H     1.7062984    3.7292280   -0.7224421 
H     0.5163924    3.3796253    0.4219792 
N     2.8084442    1.9094491   -2.5311676 
C     4.2087181    1.7212722   -2.1191152 
H     2.5246752    2.5696104   -3.2904651 
C     4.8696009    3.0606794   -1.8070735 
O     5.6558749    3.6959447   -2.7629514 
O     4.6927444    3.6852849   -0.5732994 
H     4.0462113    3.1801336    0.0156695 
C     4.9285458    0.9390622   -3.2350967 
H     4.2687193    1.1287958   -1.1747490 
C     6.2873143    0.4515338   -2.7863998 
H     5.0238913    1.5771557   -4.1428102 
H     4.3033005    0.0688898   -3.5361916 
C     6.5424991   -0.6561300   -2.0737889 
C     5.6911357   -1.6075041   -1.6107068 
C     6.2085589   -2.6423075   -0.8884873 
C     7.5519468   -2.7077244   -0.6394570 
C     8.3862767   -1.7371891   -1.1100273 
C     7.8509807   -0.7253598   -1.8248094 
H     4.6214503   -1.5538005   -1.8003499 
H     5.5479347   -3.4172710   -0.5062151 
H     7.9558047   -3.5345468   -0.0603336 
H     9.4529154   -1.7701060   -0.9150988 
N     8.5337994    0.3888927   -2.3823687 
C     7.4447235    1.1082884   -2.9800935 
H     9.5540853    0.6189330   -2.3644380 
H     7.5360800    2.0728486   -3.4816616 
