48
 energy: -9.281766580076 gnorm: 0.000948367022 xtb: 6.6.0 (2ccbbd7)
C           -0.47703449699805       -1.36649619394371        2.97944433584901
C            0.50880969502996       -0.72520596318034        2.26821479935479
C           -0.57327817228424       -1.20588806438935        4.36171509879410
C            0.35327130621297       -0.37878394422648        4.99503737573016
C            1.33419339441479        0.25985820999752        4.27466259094477
C            1.43011521941073        0.09708235613067        2.89928606339098
H            0.55357335350044       -0.83456096576263        1.19871237502578
H            0.28015228248466       -0.25423503627610        6.06063877670523
H            2.04239523215621        0.89390572985870        4.77982317995854
H           -1.18941476565580       -1.99304494088377        2.47332874456101
C            2.51795692875427        0.78298838031422        2.12764511194980
C            2.02165714007161        1.74638120855273        1.03044128157710
H            3.16501290365287        0.02110822492247        1.68243401307417
H            3.15177310528054        1.33395124909413        2.83057176809278
C            1.62897057062412        1.00148332874214       -0.22557726389169
O           -1.55168175935678       -1.83535844326497        5.10709609870939
H           -2.13265560666600       -2.36592020642505        4.52056454915382
O            0.49264994961330        0.58306511435895       -0.30678436771635
N            0.88381731543637        2.54156262464514        1.46397630192095
H            2.82309789431203        2.45620673363911        0.77027941421693
H            0.04683556613692        1.97485662233600        1.35616306196960
H            0.97347451200573        2.81015105271363        2.43675504828385
N            2.55090159129859        0.79079560185369       -1.22822754590285
C            3.98971271774537        1.03242511563327       -1.08593664746891
H            2.29903486114443        0.16969024043461       -1.99293272587859
C            4.30230212657156        2.51162601939874       -1.06780222177561
O            5.33193101802441        2.85289161338727       -0.52679446901462
O            3.40847347360884        3.33436967667463       -1.66566162607377
H            2.64001435728525        2.82070663758704       -2.00509241342200
C            4.79450032524363        0.32420916879700       -2.17199815595508
H            4.28883798083903        0.62276984359221       -0.11312600589005
C            4.58688304806156       -1.15123939182390       -2.14677740190147
H            5.85895672562691        0.55102652330294       -2.05121645313571
H            4.50814572495868        0.72423821472836       -3.14898164658612
C            4.96940285846232       -2.03188799362530       -1.09225683750258
C            5.67171671685576       -1.83581244958647        0.10945916275746
C            5.86322014248244       -2.90656871650568        0.93786228784876
C            5.37439499083875       -4.18033246365504        0.60472915563784
C            4.69114977491508       -4.39449208811817       -0.56102281150410
C            4.48375466935243       -3.31114437360982       -1.42400114664607
H            6.05297956935649       -0.86101135995229        0.35664866382283
H            6.40026183317423       -2.77336977233409        1.86230285607662
H            5.54213395985497       -5.00250061399311        1.28053920514438
H            4.31271622758684       -5.36609387344466       -0.82338366911238
N            3.83524346327086       -3.20581243910634       -2.64198386460677
C            3.89614640605566       -1.90164461852952       -3.06648653251940
H            3.37349559082766       -3.97950610132644       -3.12349316381032
H            3.45296146792308       -1.52614615641571       -3.97472699252364
