48
Energy =
C    -3.1206500   -0.5564227    2.1615547 
C    -1.8214333   -0.4926089    1.7743118 
C    -4.0894341   -0.8601558    1.2568058 
C    -3.7504939   -1.0974991   -0.0307692 
C    -2.4530104   -1.0351718   -0.4236081 
C    -1.4791851   -0.7354625    0.4791642 
H    -1.0574017   -0.2464250    2.5078644 
H    -4.5325514   -1.3364912   -0.7430048 
H    -2.2024291   -1.2234951   -1.4640733 
H    -3.3828233   -0.3629097    3.1960902 
C    -0.0327527   -0.6465333    0.0462311 
C     0.4266978    0.8177366   -0.1575807 
H     0.1361635   -1.2294115   -0.8855732 
H     0.5991437   -1.1349716    0.8240001 
C     1.9375590    0.8946181   -0.3343669 
O    -5.4375585   -0.9330970    1.6223996 
H    -5.6089409   -0.7431517    2.6037286 
O     2.7533892    0.2649450    0.6028402 
N    -0.2949676    1.4283566   -1.2899640 
H     0.2250646    1.4027012    0.7707328 
H    -0.2379030    0.8119785   -2.1352104 
H    -1.3087743    1.5361402   -1.0477543 
N     2.5330748    1.7496458   -1.3246893 
C     3.9893996    1.6417364   -1.5486670 
H     1.9328627    2.4426888   -1.8305892 
C     4.5625443    2.8821619   -2.2265063 
O     3.7540220    3.6858213   -3.0218052 
O     5.9213960    3.1905792   -2.1366258 
H     6.4237723    2.5498233   -1.5398631 
C     4.3042676    0.3568862   -2.3496163 
H     4.5068477    1.5856449   -0.5635095 
C     3.5240846    0.2720349   -3.6457029 
H     4.0544872   -0.5257297   -1.7184905 
H     5.3943809    0.2854063   -2.5550389 
C     3.8738187    0.7735747   -4.8418778 
C     4.9925898    1.4477901   -5.2141760 
C     5.1013542    1.8587436   -6.5101800 
C     4.1041213    1.5899969   -7.4063138 
C     2.9909339    0.9095907   -7.0112659 
C     2.9054802    0.5151260   -5.7234369 
H     5.7839896    1.6708060   -4.5050436 
H     5.9829737    2.4098388   -6.8292656 
H     4.1966959    1.9250062   -8.4364366 
H     2.1889919    0.6914474   -7.7082625 
N     1.8369673   -0.1959957   -5.1140594 
C     2.3167150   -0.3075552   -3.7680639 
H     0.9465186   -0.5439799   -5.5378288 
H     1.7713970   -0.7844603   -2.9579246 
