48
Energy =
C    -2.4725824    4.3147614   -0.0899962 
C    -2.0684616    3.4700810   -1.0722868 
C    -1.5967251    5.2037763    0.4495700 
C    -0.3218411    5.2411858    0.0020321 
C     0.0861116    4.4024995   -0.9838649 
C    -0.7851325    3.5090522   -1.5269489 
H    -2.7793183    2.7616911   -1.4893538 
H     0.3658109    5.9493399    0.4503319 
H     1.1185150    4.4370105   -1.3234105 
H    -3.4971778    4.2755865    0.2638847 
C    -0.3287082    2.5580749   -2.6151516 
C     0.3798352    1.2881876   -2.0788938 
H     0.3529739    3.0941364   -3.3131055 
H    -1.1991008    2.2499195   -3.2363108 
C     1.7273286    1.5931588   -1.4422440 
O    -1.9793931    6.0886279    1.4629579 
H    -2.9481213    5.9939253    1.7490888 
O     1.8080898    2.0653724   -0.1348420 
N    -0.4941171    0.5274170   -1.1714147 
H     0.6081509    0.6382906   -2.9548406 
H    -0.6426042    1.0732364   -0.2878791 
H    -1.4321072    0.3900957   -1.6142138 
N     2.9103414    1.5957913   -2.2487946 
C     4.0571952    0.8193044   -1.7464460 
H     2.9314800    2.1251424   -3.1515284 
C     5.3645976    1.3176501   -2.3571945 
O     5.4250187    1.5943369   -3.7181165 
O     6.5327305    1.4370017   -1.6033202 
H     6.4155170    1.1275395   -0.6510498 
C     3.8213425   -0.6726726   -2.0626748 
H     4.1443353    0.9679936   -0.6450750 
C     4.8140766   -1.5602799   -1.3454165 
H     3.8686122   -0.8381573   -3.1621335 
H     2.7938838   -0.9646704   -1.7515139 
C     6.0037946   -1.9831819   -1.8034950 
C     6.6091020   -1.7603276   -2.9985766 
C     7.8419764   -2.3026712   -3.2118123 
C     8.4452213   -3.0517362   -2.2398127 
C     7.8198880   -3.2604578   -1.0466011 
C     6.6005321   -2.7131540   -0.8593329 
H     6.1410701   -1.1541506   -3.7694298 
H     8.3502293   -2.1292808   -4.1573827 
H     9.4302330   -3.4758599   -2.4168465 
H     8.2875596   -3.8460015   -0.2626351 
N     5.7928528   -2.7955749    0.3068445 
C     4.6568985   -2.0166699   -0.0901964 
H     5.9822942   -3.2915564    1.2079577 
H     3.7957743   -1.8151763    0.5443851 
