48
Energy =
C    -2.2952368    2.5840694   -1.6408609 
C    -1.2800246    1.8096107   -2.0993903 
C    -3.0188870    3.3439603   -2.5053600 
C    -2.7173051    3.3273347   -3.8235791 
C    -1.7007335    2.5570603   -4.2875328 
C    -0.9800270    1.7852265   -3.4280935 
H    -0.7018270    1.2191062   -1.3939396 
H    -3.2983228    3.9432784   -4.5015889 
H    -1.4690391    2.5656420   -5.3493371 
H    -2.5228127    2.5979694   -0.5804119 
C     0.1711884    0.9454855   -3.9415147 
C     1.5103734    1.7160561   -3.8793224 
H    -0.0345382    0.6421517   -4.9918989 
H     0.2453002   -0.0019815   -3.3638545 
C     1.9509157    1.9730947   -2.4518885 
O    -4.0748690    4.1495846   -2.0674268 
H    -4.2230676    4.1270345   -1.0641171 
O     1.8094863    3.2446517   -1.9103571 
N     2.5463382    0.9862762   -4.6285652 
H     1.3785409    2.7298108   -4.3300615 
H     2.6371508    0.0136744   -4.2497113 
H     2.2660534    0.9068038   -5.6342919 
N     2.4088587    0.9028338   -1.6111033 
C     3.7962849    0.9009956   -1.0909431 
H     1.7607845    0.1094736   -1.4101894 
C     3.8222052    1.1489051    0.4134560 
O     4.4911890    0.2510327    1.2345838 
O     3.2629469    2.2863538    0.9915518 
H     2.7482523    2.8186971    0.3031567 
C     4.7293692    1.8798463   -1.8512959 
H     4.2024234   -0.1262389   -1.2301262 
C     6.1778536    1.6887797   -1.4580811 
H     4.4280710    2.9326746   -1.6513053 
H     4.6240189    1.7279999   -2.9470107 
C     7.0549115    0.8369400   -2.0113266 
C     6.8963452   -0.0244443   -3.0494003 
C     7.9572677   -0.7995543   -3.4153190 
C     9.1451194   -0.7066017   -2.7439999 
C     9.2791630    0.1617819   -1.7015450 
C     8.2165388    0.9204955   -1.3606120 
H     5.9524065   -0.1050440   -3.5806115 
H     7.8570027   -1.4971248   -4.2432068 
H     9.9848828   -1.3303270   -3.0396084 
H    10.2120647    0.2426257   -1.1540530 
N     8.1406794    1.8663997   -0.3033904 
C     6.7819855    2.3106692   -0.4296078 
H     8.8798431    2.1625166    0.3747933 
H     6.2940962    3.0156383    0.2437730 
