48
 energy: -9.061790919323 gnorm: 0.000668550874 xtb: 6.6.0 (2ccbbd7)
C           -0.16145273455635       -3.26128763417858       -3.54350188077218
C           -0.09255386198739       -2.03620522828457       -2.92463660043769
C           -0.88208016690244       -3.41561608379077       -4.72775454578490
C           -1.52110781585994       -2.29659531558775       -5.26112897781957
C           -1.44682380924813       -1.07583654513727       -4.63312351032679
C           -0.73576605167820       -0.92629053577148       -3.45065479438873
H            0.48539042820278       -1.91747959769695       -2.02535240095355
H           -2.07524852550211       -2.41455344257036       -6.17499502718385
H           -1.94586420155798       -0.22226619820105       -5.05870822059961
H            0.34337600866567       -4.11187510625963       -3.12182915592069
C           -0.65118213684981        0.40949112108725       -2.77325149617933
C            0.74253752360836        1.07383762591852       -2.84388353085016
H           -0.93997897266845        0.29745496636687       -1.72284525428346
H           -1.40012406834476        1.07348745897160       -3.21859322826078
C            1.62784393122502        0.66380171735131       -1.67831380480491
O           -0.97416668422455       -4.63214025506638       -5.37754686470896
H           -0.48466534037329       -5.31904497618464       -4.87508104510319
O            1.46282468518603       -0.42927222807049       -1.17196782627775
N            1.40965459485030        0.80066130078994       -4.10950962804592
H            0.61016897264371        2.16510854862829       -2.75414489873655
H            1.62409335266086       -0.18531071871804       -4.14251886866305
H            0.77724261469894        0.98235795056011       -4.87795984017843
N            2.59988330729328        1.55387758323118       -1.17827569973829
C            3.84971372122666        1.90227672613045       -1.92080018974436
H            2.87669178811194        1.35297827368333       -0.21753916453334
C            3.74311949422740        3.20271833925607       -2.66250143426787
O            4.72266424581686        4.13018157205841       -2.43015198871878
O            2.73047573487455        3.40043562271855       -3.56644862910511
H            2.29239207974516        2.53170326143626       -3.76500657886803
C            4.33501480599552        0.75860435109971       -2.82320435255744
H            4.62930478865845        2.05955557696900       -1.15762881727067
C            5.82218820352722        0.65037574134330       -2.97588805454448
H            3.87419453812338        0.85044811101543       -3.81084111135230
H            3.96261978489217       -0.18533718455507       -2.40906773978306
C            6.82953557123329        1.66583391182217       -2.88721763411060
C            6.80849523481852        3.04852398530851       -2.64575778064024
C            7.97791936506363        3.74794816204931       -2.62909946136399
C            9.20799561519423        3.10891760329938       -2.84913725527257
C            9.26607059317980        1.76481396204517       -3.09269702377172
C            8.07089408208323        1.03434536988327       -3.11472327871769
H            5.73882325546931        3.63479565255259       -2.50314340413095
H            7.95454617505400        4.81020164347580       -2.45098757912908
H           10.11603569931111        3.68849362444333       -2.83077442166331
H           10.20083222024795        1.26352600152795       -3.26867233022450
N            7.82419881850780       -0.30530065258456       -3.34489674492017
C            6.47290374621816       -0.52410112895393       -3.26467099193449
H            8.54156610444263       -1.00338744256173       -3.54933043247481
H            5.99782091343760       -1.48187217228211       -3.40312247136008
