48
 energy: -9.067780085626 gnorm: 0.000599954447 xtb: 6.6.0 (2ccbbd7)
C           -2.76989995646943        0.18992715980895        2.79824161097354
C           -1.52342665251442        0.14365477158337        2.21967009240416
C           -3.48538298265907        1.38676295801169        2.84910688450770
C           -2.90373214658293        2.52762032519938        2.29674366645802
C           -1.65763930541306        2.47302618751385        1.71930564859182
C           -0.94638114534493        1.28307408760922        1.67680741008908
H           -0.98194256791128       -0.78615196694384        2.18307431168693
H           -3.45587703589511        3.44960476497550        2.33367217298534
H           -1.22154590042157        3.35957771987156        1.29171754573635
H           -3.20667424322640       -0.69839848441691        3.21822247255262
C            0.39402478065768        1.22427207329524        1.01358909976418
C            0.30725780255969        1.19352662656660       -0.51392159804057
H            0.93796050199434        0.33630865730881        1.34934477834794
H            1.00021670322326        2.07836614903523        1.33294657253224
C            1.69332751615575        1.17624866585347       -1.10976179374391
O           -4.73966071036280        1.46754860750322        3.42415119452110
H           -5.00977727707389        0.58741091337394        3.76496040361247
O            2.39151702737909        0.20621492059700       -0.90412975370102
N           -0.42989894599007        0.03920121309310       -1.00162056910241
H           -0.21768775743457        2.09447459791116       -0.86558261356854
H            0.13961031570737       -0.78449377845277       -0.85972232980897
H           -1.28899547878583       -0.08047759092455       -0.47995139658650
N            2.09922803897140        2.26443670645645       -1.85096257938763
C            3.49461184470389        2.42913285465918       -2.25077178294787
H            1.56215786690297        3.13263625392740       -1.82472130228305
C            3.64235487456507        3.67419690438806       -3.07410873441432
O            4.75737983953109        4.44455307220453       -2.91784945791458
O            2.64194811746268        3.96483498444159       -3.97194824519828
H            1.96753970275654        3.24521915832904       -3.96620887365364
C            4.03365139341131        1.19457553486976       -2.99895668457929
H            4.06534237807097        2.55264775241264       -1.31875608267633
C            5.46293550383583        0.85964815362802       -2.70773089868715
H            3.89405790973296        1.32754693118385       -4.07619230670770
H            3.41798759433320        0.33178606012820       -2.72184614555672
C            6.55495329189929        1.75109075570102       -2.47575143217101
C            6.66734641985947        3.14677152890806       -2.43382385559197
C            7.87769434768666        3.71327101851711       -2.16810461742957
C            9.01251465362916        2.91941956889805       -1.93542083797437
C            8.93660549597415        1.55404467857824       -1.97312835584435
C            7.69823319521906        0.95842184710564       -2.24640368430086
H            5.67463126815877        3.83246515890992       -2.66622255577996
H            7.96269906963848        4.78680268659360       -2.13946671492438
H            9.95595456995943        3.39567542002338       -1.72609091404991
H            9.79849345224998        0.93576195669777       -1.79757169013701
N            7.31271359185890       -0.36552781349967       -2.34550474567950
C            5.96964466900618       -0.41415514289642       -2.62365262529717
H            7.93351239478062       -1.16619185614740       -2.21409240982181
H            5.40022488805723       -1.32116192229235       -2.74839704553427
