48
 energy: -9.073157245365 gnorm: 0.000622321745 xtb: 6.6.0 (2ccbbd7)
C           -1.43803265671199        0.66104356487283       -6.48520367967227
C           -1.54835472487132        1.07951846745436       -5.17841984770229
C           -0.18592835170369        0.42625644764991       -7.05925646425934
C            0.94884967312405        0.63052282017925       -6.27261862268243
C            0.81694010857864        1.04983630857940       -4.97646459279813
C           -0.41439568958031        1.27571093959667       -4.40164606078511
H           -2.51858111478100        1.25985343086756       -4.74850549074233
H            1.91954499258138        0.45678508331700       -6.70047935240017
H            1.72532099992657        1.24783745994480       -4.17466739160830
H           -2.32037627900636        0.51052386295534       -7.08082381317570
C           -0.48798413361540        1.74939018127449       -2.98215510038485
C            0.37199262932568        0.92992484883393       -2.00195838022511
H           -1.53103512254977        1.72813192025012       -2.65125897046738
H           -0.18010358135339        2.79804456015099       -2.93227658931859
C            1.84446486266632        1.22101990021435       -2.11484166733337
O           -0.04609208843567        0.00334907775496       -8.36714192729868
H           -0.92832475926260       -0.07925365111007       -8.78950438194718
O            2.44448313378235        1.43603841278459       -3.32682532195407
N           -0.07750080066387        1.12616285434497       -0.62507849922540
H            0.23877542108542       -0.13834783316429       -2.23482032134126
H            0.05194380958226        2.09614235198010       -0.36965831920558
H           -1.06404205929540        0.92058568534684       -0.53449467553190
N            2.59278471271224        1.24616901626130       -0.93990257615249
C            4.05794549308408        1.27485257702729       -0.85917276384511
H            2.13140667264744        0.98691176326860       -0.06489142743143
C            4.55484592719104        2.70207978023000       -0.96072780490484
O            5.35447899994509        3.09543708987417       -0.13958042669088
O            4.05703952032715        3.41200983181846       -1.99803033281360
H            3.44678549404052        2.82459041047592       -2.51120889247406
C            4.71980862287649        0.37884877503056       -1.90229940340514
H            4.34678790743416        0.90776242542106        0.13733350015572
C            4.24994810383243       -1.03212828535591       -1.81545778463231
H            5.80881149217523        0.41752162437349       -1.79520058043045
H            4.50072967725526        0.76983377449444       -2.90012078130741
C            4.66023658813059       -2.00763459289217       -0.86061380535280
C            5.60132962439766       -1.98589810130798        0.18284174936903
C            5.75267406654511       -3.10762893712775        0.95026009504563
C            4.98873976992682       -4.26176646514906        0.71008442369049
C            4.06441037548266       -4.30334875466255       -0.29794960414774
C            3.89251172003271       -3.16510759423336       -1.09602763133641
H            6.18159654673538       -1.09837139219527        0.36370031622946
H            6.46952641051864       -3.10796349884752        1.75467677249902
H            5.13295211553406       -5.12810689207173        1.33432265429344
H            3.47235537815230       -5.18106956808772       -0.48575785668679
N            3.04230884289397       -2.89386240075331       -2.15468208696368
C            3.25668228536924       -1.60371098516243       -2.57124280853422
H            2.35157048474516       -3.54632890085805       -2.53004852427724
H            2.70364338683348       -1.10347235472686       -3.34919340407075
