48
 energy: -9.172934676457 gnorm: 0.000975496895 xtb: 6.6.0 (2ccbbd7)
C           -3.25535384123724        1.50710204865412        1.94438412962246
C           -1.90247926877665        1.71923019182444        1.81943121436025
C           -4.15200945000303        2.09449194803842        1.05094640992153
C           -3.63928497864127        2.89963820756267        0.03398673137791
C           -2.28553191918622        3.10784771420754       -0.08376653003001
C           -1.39742619632128        2.52451368868805        0.80805510315280
H           -1.21938812823915        1.25537581266220        2.51026294481264
H           -4.33000125672430        3.35126897503374       -0.65552744085939
H           -1.90128308904128        3.72693423784956       -0.87630200712998
H           -3.63623080927547        0.88352518521572        2.73335339361838
C            0.07849658815020        2.70998102426401        0.64064956648693
C            0.65723615488285        1.87175246899373       -0.50363381702379
H            0.59401435246765        2.44638890659769        1.56864677761035
H            0.30207192324705        3.76850516853569        0.46957321263015
C            2.11597196991900        2.13621113598131       -0.68098657960492
O           -5.51682457141375        1.89734792009942        1.14684743348348
H           -5.71926819438079        1.31589434589810        1.91164741805094
O            2.63177358224574        3.41551546352341       -0.43928517335210
N            0.41441180598403        0.44522186993499       -0.31663761210276
H            0.15959855172183        2.16427406853434       -1.44198579362656
H            0.91172383576453        0.12971083152292        0.50533316541206
H           -0.56943115732842        0.27698657611752       -0.15324698022824
N            2.94540879531441        1.11444173238219       -1.09443302001633
C            4.19922105064104        1.34695142227452       -1.81641663710333
H            2.50071801702990        0.24566882422040       -1.39324674966113
C            4.32455811100748        2.78411522659279       -2.27086705889561
O            4.79661987545343        3.01578813722318       -3.38160717010734
O            3.91121940765340        3.79157338034206       -1.37619610889890
H            3.78172058198300        3.39519053263388       -0.30291365328491
C            4.32610212542693        0.39057267146726       -3.00855383255988
H            5.01609988469026        1.14417602719746       -1.10924220874456
C            4.17640269351123       -1.04189963753924       -2.62320132967844
H            5.28692222911591        0.54886980047853       -3.50931620330639
H            3.56304759471554        0.65384493470233       -3.74693641462939
C            2.95582083698276       -1.78262723393104       -2.57497355919509
C            1.62929208841575       -1.46808086297936       -2.92190600576569
C            0.65657450469993       -2.40578626298884       -2.71197538348770
C            0.96415140758153       -3.66307179387778       -2.16694665162659
C            2.24752028436850       -3.99307174943127       -1.82639139972237
C            3.25838841018243       -3.04499980118316       -2.02894144062689
H            1.39464347748848       -0.50987369410677       -3.35206668238161
H           -0.36438492916965       -2.17886671740706       -2.97102535081444
H            0.17365653338108       -4.37956072799189       -2.01611178222700
H            2.49191280563927       -4.95215892805199       -1.40615011796087
N            4.61636667460725       -3.06758155712442       -1.76262128844206
C            5.15807640783289       -1.85551135627927       -2.11393868716399
H            5.11453301215228       -3.85606967348842       -1.34560843365487
H            6.19266812736611       -1.58133119784069       -1.98555080210853
