48
Energy =
C    -3.4387302    0.8117779    3.1519815 
C    -2.1231533    0.5230129    2.9850047 
C    -4.0726072    1.6429798    2.2815958 
C    -3.3840348    2.1795174    1.2483769 
C    -2.0689007    1.8938356    1.0762222 
C    -1.4296103    1.0650333    1.9465751 
H    -1.6315348   -0.1464213    3.6860554 
H    -3.8989852    2.8404868    0.5600009 
H    -1.5318274    2.3342020    0.2381720 
H    -3.9828178    0.3753839    3.9824371 
C     0.0321266    0.7376921    1.7431681 
C     0.2431474   -0.3397255    0.6541071 
H     0.5061155    0.4077784    2.6942832 
H     0.5605676    1.6726860    1.4527609 
C     1.6999736   -0.3953101    0.2317865 
O    -5.4277402    1.9598435    2.4257780 
H    -5.8704824    1.5195088    3.2244926 
O     2.6934143   -0.6316608    1.1805691 
N    -0.2113816   -1.6576598    1.1240391 
H    -0.3399138   -0.0629066   -0.2555783 
H     0.3053098   -1.9174761    1.9983794 
H    -1.2326681   -1.6222003    1.3485146 
N     2.0844617    0.1190570   -1.0462573 
C     2.8540801    1.3739316   -1.0444100 
H     1.8763706   -0.4390124   -1.9045180 
C     1.9168170    2.5679637   -1.1987697 
O     1.1576737    2.6961701   -2.3556210 
O     1.7848662    3.5411026   -0.2052880 
H     2.3809007    3.3739181    0.5911633 
C     3.9371395    1.3531424   -2.1545379 
H     3.3738586    1.4978445   -0.0719644 
C     4.5640587   -0.0103532   -2.4002763 
H     4.7410768    2.0795598   -1.9056626 
H     3.4821353    1.7088744   -3.1086301 
C     5.2376157   -0.7889014   -1.5315639 
C     5.5266087   -0.5970765   -0.2186732 
C     6.2248175   -1.5643319    0.4439947 
C     6.6272835   -2.6952083   -0.2090826 
C     6.3299486   -2.8681242   -1.5271442 
C     5.6340534   -1.8998035   -2.1588922 
H     5.1973663    0.2861254    0.3118229 
H     6.4504005   -1.4413571    1.5011751 
H     7.1786100   -3.4642949    0.3266200 
H     6.6365677   -3.7623663   -2.0595177 
N     5.2229813   -1.8939804   -3.5170431 
C     4.5383485   -0.6385743   -3.5907044 
H     5.3823391   -2.6114369   -4.2615688 
H     4.0639232   -0.2539724   -4.4913747 
