48
Energy =
C    -2.2659377   -0.6843930    2.1657635 
C    -1.4594240   -0.7832652    1.0788692 
C    -3.1407518    0.3509968    2.2758911 
C    -3.2014349    1.2814454    1.2962014 
C    -2.3972111    1.1875858    0.2070521 
C    -1.5224957    0.1509956    0.0907734 
H    -0.7636874   -1.6150825    1.0048795 
H    -3.9017300    2.1033049    1.3965032 
H    -2.4582031    1.9485717   -0.5663504 
H    -2.2086464   -1.4348773    2.9465945 
C    -0.6113011    0.0476377   -1.1121385 
C     0.8350690    0.5102223   -0.8036778 
H    -1.0139948    0.6313371   -1.9699204 
H    -0.5964535   -1.0114437   -1.4553529 
C     1.7915060    0.2290743   -1.9594459 
O    -3.9854186    0.4828268    3.3831943 
H    -3.8784699   -0.2538491    4.0717210 
O     1.3097845   -0.3926610   -3.1021751 
N     0.8582089    1.9395384   -0.4524767 
H     1.2257023   -0.0807759    0.0555749 
H     0.4055139    2.5019752   -1.2116173 
H     0.3202465    2.1006466    0.4308709 
N     3.1797313    0.5983900   -1.8276722 
C     4.2495364    0.3852195   -2.8353983 
H     3.4806256    0.8868497   -0.8679402 
C     4.7117245    1.6884085   -3.4630392 
O     5.4099168    2.6003679   -2.6789716 
O     4.5223216    1.9863355   -4.8080633 
H     3.8076160    1.2778931   -5.3368636 
C     4.0901961   -0.8361434   -3.7859849 
H     5.1475482    0.1069323   -2.2382955 
C     3.1590925   -0.7065507   -4.9928370 
H     3.7828788   -1.6844211   -3.1436885 
H     5.0936952   -1.0922655   -4.1909192 
C     2.3891417   -1.7025812   -5.4735813 
C     2.2289233   -2.9739480   -5.0048597 
C     1.3935625   -3.8199678   -5.6700656 
C     0.7359685   -3.3985591   -6.7871761 
C     0.9123977   -2.1298186   -7.2446886 
C     1.7430446   -1.3050905   -6.5686659 
H     2.7410694   -3.3316084   -4.1199691 
H     1.2490780   -4.8352305   -5.3077871 
H     0.0698057   -4.0776695   -7.3141706 
H     0.3988456   -1.7830374   -8.1354829 
N     2.0486969    0.0308550   -6.9339596 
C     3.0148080    0.4949199   -5.9233724 
H     1.6583621    0.5380325   -7.7648475 
H     3.1624882    1.5063533   -6.3663718 
