48
 energy: -9.252149154547 gnorm: 0.000644941982 xtb: 6.6.0 (2ccbbd7)
C           -0.72895159666772        7.16448499974322       -1.25540607851610
C            0.17649120124372        6.44228108278153       -0.51410805730137
C           -1.78782569664451        6.52729755266760       -1.90355279983841
C           -1.89753031346358        5.14259345291359       -1.78126242477095
C           -0.98662036615810        4.43035672444336       -1.03982619522737
C            0.05957582784874        5.06497242113330       -0.38821990024727
H            0.99158744761785        6.94632759684783       -0.02397175136496
H           -2.70699586787089        4.64700192816739       -2.28705291012798
H           -1.05895767891800        3.35884284540538       -0.97665111635666
H           -0.62825492871157        8.23147036209425       -1.34492308029992
C            1.06711656861192        4.27875880011649        0.39922644042379
C            1.99920213790438        3.40706629120711       -0.46293279948826
H            0.54024493756439        3.63767700701455        1.11388643641983
H            1.66175152016822        4.97414238227783        1.00168867801315
C            1.38325362417535        2.09125636304423       -0.85117017440366
O           -2.71366199430724        7.22527366171277       -2.65596851872376
H           -2.49941910600570        8.18347302927071       -2.64484762599349
O            0.21228809808888        1.86175755075285       -0.61559495231219
N            2.39740627548600        4.12444477167611       -1.71455697377987
H            2.91202495274139        3.17854441765859        0.10384170997452
H            1.50634439770427        4.42511035211933       -2.16202711698282
H            2.85568875655118        5.02013535030657       -1.44048781115944
N            2.17759830567215        1.16197805242459       -1.48782286594894
C            3.64288200599102        1.23896802487832       -1.57660012179682
H            1.77664662344769        0.25590057870803       -1.72466300560264
C            4.09036181191960        2.60673166921534       -1.98113479144631
O            3.18162241013044        3.40289056959014       -2.64913339885516
O            5.36867540884493        3.02754962372873       -1.69024680577098
H            5.84352312649033        2.34094180584771       -1.17081941585715
C            4.19797315459901        0.17920354823561       -2.53541441632391
H            4.02617628056495        1.05093410613822       -0.56247322261380
C            3.63136904840236        0.27108542247392       -3.91347264305756
H            3.99359060054548       -0.81959663064860       -2.13595961953937
H            5.28782566407782        0.26548888689221       -2.59186594014231
C            3.96619987301325        1.22837547103087       -4.91838163102998
C            4.84786107445468        2.32356197019788       -4.94571731854196
C            4.93670406052045        3.06820345717897       -6.08862408975931
C            4.16660815148583        2.75655450117176       -7.22089411866530
C            3.29506354930819        1.70206644665640       -7.21551155050331
C            3.18835584215881        0.92734716653594       -6.05340170589041
H            5.39121106102252        2.59358512117183       -4.05740930060545
H            5.59736176063386        3.91890338094409       -6.11721245130726
H            4.25803945076056        3.36616621454463       -8.10461057256855
H            2.69421213400454        1.46181945516296       -8.07433135978337
N            2.40568700469739       -0.17020818828169       -5.74249481510508
C            2.67239498078024       -0.55178047161377       -4.45109865239648
H            1.72387177602256       -0.59546633479024       -6.37351553585602
H            2.20129464165260       -1.37788610296718       -3.94353609724377
