48
Energy =
C     1.0489344   -0.4489425    1.7014239 
C     1.1388344   -1.4488455    0.7886055 
C     1.9649804   -0.3521081    2.7015744 
C     2.9655084   -1.2580231    2.7811387 
C     3.0609637   -2.2591016    1.8710624 
C     2.1486100   -2.3602967    0.8648428 
H     0.3985013   -1.5125169   -0.0060488 
H     3.6901755   -1.1719407    3.5828884 
H     3.8738890   -2.9755431    1.9541805 
H     0.2421306    0.2723281    1.6292770 
C     2.2566404   -3.4691933   -0.1640590 
C     3.0030670   -3.0567264   -1.4543006 
H     1.2339989   -3.8138581   -0.4370100 
H     2.7618066   -4.3544277    0.2802712 
C     2.3672360   -1.8468399   -2.1410185 
O     1.9009729    0.6662499    3.6580880 
H     1.1237749    1.3046495    3.5290700 
O     1.1095922   -1.9912385   -2.7185174 
N     4.4459032   -2.8910656   -1.2039278 
H     2.8810642   -3.8921673   -2.1818816 
H     4.6192402   -2.2730247   -0.3777554 
H     4.8617288   -3.8234507   -0.9679985 
N     2.9088627   -0.5181486   -2.0263408 
C     3.9633733   -0.2844701   -3.0406863 
H     3.3042291   -0.4437933   -1.0609849 
C     4.8588030    0.9009662   -2.6799349 
O     6.1901473    0.8839457   -3.0750876 
O     4.3740407    2.0341089   -2.0252353 
H     3.3738597    1.9891550   -1.8962114 
C     3.3236637   -0.1051583   -4.4405352 
H     4.6584052   -1.1573162   -3.0867386 
C     2.4240795    1.1115656   -4.5206479 
H     2.7290234   -1.0120683   -4.6981387 
H     4.1220850   -0.0436899   -5.2117677 
C     2.7745568    2.3512869   -4.9003521 
C     3.9767438    2.8302345   -5.3132514 
C     4.0737916    4.1532761   -5.6297641 
C     2.9813344    4.9696376   -5.5304500 
C     1.7855087    4.4679140   -5.1104293 
C     1.7147995    3.1556089   -4.8033378 
H     4.8523988    2.1903718   -5.3785682 
H     5.0279452    4.5618611   -5.9540711 
H     3.0687693    6.0239984   -5.7799584 
H     0.9113700    5.1032580   -5.0182847 
N     0.5799620    2.4450784   -4.3314273 
C     1.1262925    1.1302201   -4.1668205 
H    -0.3911934    2.7866320   -4.1508968 
H     0.5678238    0.2754953   -3.7910278 
