48
Energy =
C    -0.5211741    3.5925994   -1.9568229 
C    -0.0746415    3.6032960   -0.6759494 
C     0.1987471    4.2009567   -2.9359835 
C     1.3615506    4.8161144   -2.6256310 
C     1.8125724    4.8317289   -1.3454776 
C     1.0953653    4.2270083   -0.3600326 
H    -0.6576247    3.1021705    0.0934272 
H     1.9401585    5.2730382   -3.4210870 
H     2.7596967    5.3143352   -1.1260622 
H    -1.4535164    3.0924769   -2.1960034 
C     1.5870890    4.2361375    1.0736360 
C     2.6288735    3.1329315    1.4022780 
H     0.7164697    4.1074529    1.7561189 
H     1.9966475    5.2386939    1.3251383 
C     2.2551360    1.7649762    0.8486739 
O    -0.2308556    4.2026011   -4.2669312 
H    -1.1140416    3.7272901   -4.4172390 
O     1.4992656    0.9118773    1.6443151 
N     3.9950202    3.5212538    1.0066493 
H     2.6032204    2.9995651    2.5112883 
H     4.0672898    4.4995097    0.6438474 
H     4.6514606    3.4487230    1.8190730 
N     2.4808192    1.3909880   -0.5203688 
C     3.8662121    1.2051337   -1.0119492 
H     1.6400427    1.2452266   -1.1202424 
C     4.3051617    2.4158120   -1.8322489 
O     5.4941207    3.0622104   -1.5185495 
O     3.6025314    2.8396753   -2.9605122 
H     2.7805210    2.2773873   -3.1180941 
C     3.9428758   -0.0767347   -1.8876250 
H     4.6085482    1.1613267   -0.1868048 
C     4.2212685   -1.4423769   -1.2573699 
H     4.7529698    0.0728892   -2.6408728 
H     3.0078499   -0.1658201   -2.4830532 
C     4.2300101   -1.8897473    0.0256251 
C     4.0242451   -1.2524350    1.2093691 
C     4.0884695   -1.9669079    2.3685574 
C     4.3600519   -3.3026184    2.3423289 
C     4.5688091   -3.9321269    1.1558994 
C     4.4981253   -3.2044781    0.0214382 
H     3.8133515   -0.2072061    1.2747751 
H     3.9176229   -1.4673560    3.3194789 
H     4.4075681   -3.8653048    3.2714167 
H     4.7847637   -4.9945373    1.1157365 
N     4.6802093   -3.6918565   -1.2948784 
C     4.4806866   -2.4993372   -2.0539993 
H     4.8999230   -4.6612968   -1.6210575 
H     4.5232704   -2.4606860   -3.1410192 
