48
Energy =
C    -3.8338424    1.8531532   -0.2908417 
C    -2.5027496    1.5945314   -0.2416187 
C    -4.2763710    3.1183567   -0.5198782 
C    -3.3821683    4.1169146   -0.6996448 
C    -2.0495622    3.8642112   -0.6516693 
C    -1.6015166    2.6003600   -0.4170580 
H    -2.1657963    0.5767923   -0.0641618 
H    -3.7483828    5.1209929   -0.8843806 
H    -1.3465200    4.6796780   -0.8034319 
H    -4.5430703    1.0450151   -0.1486668 
C    -0.1164642    2.3155328   -0.3838250 
C     0.4754308    2.1824264   -1.8059756 
H     0.0927828    1.3959530    0.2060724 
H     0.3957471    3.1446087    0.1571170 
C     1.9935023    2.1435672   -1.7628285 
O    -5.6411541    3.4186181   -0.5771012 
H    -6.2458281    2.6175144   -0.4321441 
O     2.6836001    3.2891336   -2.1321722 
N    -0.0744789    1.0012366   -2.4991319 
H     0.2286737    3.1025998   -2.3914594 
H    -0.1464047    0.1808755   -1.8528522 
H    -1.0490763    1.2151478   -2.8205692 
N     2.6707005    1.0114779   -1.1763786 
C     4.1125519    0.9751085   -0.8126585 
H     2.1012056    0.1432777   -1.0878521 
C     4.9484555    2.2078205   -1.1790541 
O     5.4189999    3.0281223   -0.1588267 
O     5.3533792    2.4692808   -2.4892109 
H     4.7989644    1.9440865   -3.1481535 
C     4.7547567   -0.3145800   -1.3835991 
H     4.1752734    0.9259612    0.2978798 
C     4.2049057   -1.5678850   -0.7357835 
H     5.8564270   -0.2944515   -1.2148453 
H     4.6150539   -0.3544549   -2.4846407 
C     3.2506458   -2.3823159   -1.2183820 
C     2.5506483   -2.3164771   -2.3813931 
C     1.6101912   -3.2730285   -2.6273415 
C     1.3850298   -4.2700391   -1.7190755 
C     2.0978034   -4.3154392   -0.5578788 
C     3.0231370   -3.3581603   -0.3373045 
H     2.7200007   -1.5221256   -3.1026279 
H     1.0359527   -3.2415565   -3.5506516 
H     0.6340212   -5.0293761   -1.9229111 
H     1.9293184   -5.0976296    0.1746700 
N     3.8531580   -3.2147640    0.8063823 
C     4.5841984   -2.0288629    0.4689165 
H     3.9098443   -3.8108319    1.6640753 
H     5.3363876   -1.5678369    1.1056409 
