48
Energy =
C    -0.8959092   -1.9763102    1.4734470 
C    -0.7585046   -1.3619395    0.2714604 
C     0.0472499   -2.8568985    1.9027059 
C     1.1240575   -3.1134338    1.1254978 
C     1.2667764   -2.5013116   -0.0775578 
C     0.3211840   -1.6257989   -0.5144632 
H    -1.5157262   -0.6546157   -0.0552317 
H     1.8720130   -3.8128232    1.4813873 
H     2.1440058   -2.7150892   -0.6809259 
H    -1.7600955   -1.7591676    2.0911072 
C     0.4866053   -0.9222163   -1.8430841 
C     1.0318688    0.5134104   -1.6676978 
H    -0.5001678   -0.8824593   -2.3542722 
H     1.1541779   -1.5075787   -2.5114249 
C     2.3760836    0.5399910   -0.9589326 
O    -0.0655149   -3.5099457    3.1355896 
H    -0.8913076   -3.2492037    3.6625887 
O     2.4946430    1.1196427    0.1300866 
N     1.1149380    1.1781301   -2.9771801 
H     0.3306783    1.0908779   -1.0184681 
H     1.7167379    0.6162365   -3.6228937 
H     0.1594524    1.2337325   -3.4001723 
N     3.5583339    0.0096041   -1.5813413 
C     4.7514579    0.8492478   -1.3834061 
H     3.5322565   -0.8699727   -2.1409705 
C     4.5495456    1.7550256   -0.1600465 
O     5.5119557    2.6960835    0.1912410 
O     3.5143785    1.6579233    0.5171015 
H     3.1753386    0.7523929    0.7699675 
C     4.9835608    1.6522149   -2.6804384 
H     5.6261729    0.2005428   -1.1589600 
C     6.3839847    2.2202535   -2.7603163 
H     4.2270854    2.4678437   -2.7508670 
H     4.8077630    1.0008530   -3.5635086 
C     7.4845649    1.5792464   -3.1837345 
C     7.6283620    0.3107675   -3.6469477 
C     8.8744125   -0.1086577   -4.0106729 
C     9.9456282    0.7349760   -3.9043350 
C     9.7774779    2.0031010   -3.4326715 
C     8.5348532    2.3953516   -3.0819553 
H     6.7799239   -0.3622853   -3.7255192 
H     9.0178565   -1.1198956   -4.3841500 
H    10.9362931    0.3925978   -4.1932196 
H    10.6173289    2.6829623   -3.3362372 
N     8.1485516    3.6578710   -2.5590377 
C     6.7397563    3.4571237   -2.3697583 
H     8.7308930    4.5065350   -2.3731227 
H     6.0644800    4.1817299   -1.9139809 
