48
Energy =
C    -4.1843781   -0.0904687   -1.0359376 
C    -3.1979642    0.7469210   -0.6260248 
C    -4.6109492   -0.0639179   -2.3269416 
C    -4.0472853    0.8021455   -3.1993108 
C    -3.0603855    1.6412957   -2.7950524 
C    -2.6310378    1.6200530   -1.5036724 
H    -2.8652880    0.7122039    0.4082173 
H    -4.3973715    0.8143179   -4.2256684 
H    -2.6195790    2.3304190   -3.5105645 
H    -4.6304534   -0.7818309   -0.3291162 
C    -1.5172963    2.5416738   -1.0584550 
C    -0.1233269    2.0347919   -1.4998604 
H    -1.5360776    2.6818955    0.0466827 
H    -1.6993492    3.5525709   -1.4891903 
C     0.9440984    3.0846446   -1.2451944 
O    -5.6226533   -0.9151414   -2.7827080 
H    -6.0010739   -1.5260574   -2.0670722 
O     1.0014850    3.7394579   -0.0186377 
N     0.2184165    0.7767542   -0.8160113 
H    -0.1363858    1.8636873   -2.6003450 
H     0.1500142    0.9131452    0.2216763 
H    -0.4680466    0.0314735   -1.0791657 
N     1.9641738    3.3379635   -2.2211961 
C     3.3617331    3.1514014   -1.7793821 
H     1.6827804    3.5790108   -3.1968255 
C     4.3524850    3.9957323   -2.5770516 
O     5.3887637    4.6247413   -1.8988709 
O     4.3084938    4.1122354   -3.9676251 
H     3.6150423    3.5063693   -4.3755465 
C     3.7300626    1.6484974   -1.7505231 
H     3.4680256    3.5449389   -0.7387669 
C     3.6997377    0.9898900   -3.1126173 
H     3.0248126    1.1154849   -1.0737880 
H     4.7360233    1.5196188   -1.2940519 
C     4.7115593    0.8988269   -3.9915048 
C     5.9866031    1.3585463   -3.9051658 
C     6.8274095    1.1405851   -4.9567116 
C     6.3884273    0.4707438   -6.0651479 
C     5.1044710    0.0171576   -6.1293048 
C     4.2914123    0.2474579   -5.0770186 
H     6.3357747    1.9025107   -3.0321066 
H     7.8497822    1.5085029   -4.9150629 
H     7.0641154    0.3037377   -6.9000044 
H     4.7389327   -0.5130195   -7.0018675 
N     2.9290873   -0.1311186   -4.9459931 
C     2.6237703    0.3862739   -3.6448706 
H     2.3177342   -0.6447648   -5.6207357 
H     1.6637245    0.2757345   -3.1498172 
