48
Energy =
C     1.7270640    5.4980186    4.1525861 
C     1.6359623    4.6551919    3.0930003 
C     1.9616795    5.0066653    5.3985484 
C     2.1049024    3.6735061    5.5752915 
C     2.0150519    2.8257476    4.5192714 
C     1.7748948    3.3120437    3.2707150 
H     1.4547444    5.0641280    2.1023609 
H     2.2943428    3.2948509    6.5738701 
H     2.1377668    1.7576314    4.6809718 
H     1.6139343    6.5659258    4.0003232 
C     1.6947248    2.3686204    2.0908914 
C     3.0979245    1.9605388    1.5844865 
H     1.1030423    2.8267827    1.2680160 
H     1.1295514    1.4587726    2.3991406 
C     3.0141944    0.8018031    0.6008905 
O     2.0618993    5.8475818    6.5115138 
H     1.9420386    6.8316607    6.2973546 
O     3.5350081   -0.4325195    0.9707631 
N     3.8027695    3.1166183    0.9990470 
H     3.6935616    1.5615149    2.4424733 
H     3.1733870    3.6529540    0.3546998 
H     4.0866543    3.7746856    1.7637049 
N     2.5903061    0.9935795   -0.7605424 
C     3.7525600    1.2560579   -1.6468061 
H     1.9042131    1.7821136   -0.7740485 
C     3.4489414    2.3334696   -2.6887141 
O     2.2155155    2.3454476   -3.3288897 
O     4.3975815    3.2894812   -3.0557389 
H     5.2829424    3.1671255   -2.5863736 
C     4.1342155   -0.0761864   -2.3235311 
H     4.6270869    1.6353463   -1.0633719 
C     5.4556463    0.0147482   -3.0537038 
H     3.3200974   -0.4008804   -3.0092154 
H     4.2072644   -0.8718568   -1.5473126 
C     5.6516715    0.3418507   -4.3415838 
C     4.7518468    0.6412697   -5.3137679 
C     5.2198812    0.9537563   -6.5559739 
C     6.5641884    0.9617327   -6.8063824 
C     7.4493945    0.6593497   -5.8147127 
C     6.9620466    0.3536720   -4.5938411 
H     3.6832420    0.6471607   -5.1181214 
H     4.5188854    1.2052216   -7.3485898 
H     6.9284059    1.2162421   -7.7986389 
H     8.5189525    0.6668647   -5.9953770 
N     7.7078643    0.0252456   -3.4297496 
C     6.6555986   -0.1740693   -2.4770281 
H     8.7436970   -0.0487198   -3.3043473 
H     6.8116644   -0.4322623   -1.4312020 
