48
Energy =
C    -3.9462142   -1.2308251   -1.4948508 
C    -3.1559511   -0.4149341   -2.2376178 
C    -3.3949828   -2.0525320   -0.5623423 
C    -2.0555789   -2.0505887   -0.3786441 
C    -1.2607811   -1.2368119   -1.1184013 
C    -1.8057829   -0.4154965   -2.0570374 
H    -3.6137995    0.2389259   -2.9753640 
H    -1.6292627   -2.7083312    0.3707650 
H    -0.1903034   -1.2467934   -0.9494056 
H    -5.0200516   -1.2230644   -1.6481055 
C    -0.9233586    0.5037778   -2.8758323 
C    -0.3687108    1.6944131   -2.0547676 
H    -1.4799998    0.8937396   -3.7585740 
H    -0.0809575   -0.0947942   -3.2880279 
C     0.5257361    2.5762784   -2.9162081 
O    -4.1797862   -2.9053238    0.2203635 
H    -5.1727244   -2.8482519    0.0214553 
O     0.1271489    3.8611076   -3.2734720 
N    -1.4674749    2.4742388   -1.4587544 
H     0.2826802    1.3145318   -1.2364933 
H    -2.1431574    2.7693217   -2.2039291 
H    -1.9926771    1.8933942   -0.7641710 
N     1.8248377    2.1209206   -3.3186375 
C     2.9883790    2.7947335   -2.7136402 
H     1.9151192    1.2704121   -3.9194867 
C     3.9131569    3.3857801   -3.7776179 
O     3.9799816    2.8155871   -5.0441315 
O     4.8048409    4.4149870   -3.4660142 
H     4.6556229    4.7816263   -2.5375408 
C     3.7326467    1.8139993   -1.7796478 
H     2.6488269    3.6592371   -2.0963195 
C     4.3533484    0.6430488   -2.5202939 
H     3.0342657    1.4509555   -0.9965783 
H     4.5364311    2.3602671   -1.2372183 
C     3.8286341   -0.5825038   -2.6864831 
C     2.6555625   -1.0966892   -2.2368329 
C     2.3422900   -2.3835550   -2.5630184 
C     3.1980332   -3.1300819   -3.3241783 
C     4.3717006   -2.5941370   -3.7638671 
C     4.6586119   -1.3193061   -3.4271022 
H     1.9765792   -0.5041098   -1.6371310 
H     1.4072483   -2.8191442   -2.2200520 
H     2.9409563   -4.1542976   -3.5827224 
H     5.0597393   -3.1709060   -4.3726338 
N     5.8112696   -0.5753000   -3.7923399 
C     5.5315237    0.6869497   -3.1702746 
H     6.6418175   -0.8745774   -4.3536162 
H     6.1630688    1.5714818   -3.2562648 
