48
 energy: -9.287533412773 gnorm: 0.000816727619 xtb: 6.6.0 (2ccbbd7)
C           -3.47178732893790       -1.75524519134074        0.13067378932471
C           -2.14576571565769       -1.63392155823043       -0.21185308063380
C           -3.90317575323118       -1.44565945127795        1.42103902329913
C           -2.95654035278122       -1.00830581356783        2.34707282472974
C           -1.63308063060580       -0.88845521905555        1.99656797132028
C           -1.20647016116681       -1.20632595998438        0.71542080562191
H           -1.82466711138062       -1.87160471526698       -1.21146018308813
H           -3.28942731036118       -0.76624964023965        3.34055646199472
H           -0.91258569296486       -0.54255075177484        2.71797163695460
H           -4.19141371328585       -2.08964287177285       -0.59506516289426
C            0.22953195087472       -1.03690619729157        0.33150348767151
C            0.56906293986067        0.39688000254003       -0.07492825147600
H            0.47653912828346       -1.71223171502849       -0.49297400115784
H            0.87190416769253       -1.34169942008858        1.16479216819358
C            2.04734668381687        0.56408862061949       -0.31147291969138
O           -5.22778099765155       -1.55775628794765        1.79824629201614
H           -5.76819599607785       -1.87029709382379        1.04073876551392
O            2.78024505128504        0.82243081160551        0.62292365871202
N           -0.16949908602937        0.85153222539983       -1.25210192149394
H            0.31382123968311        1.07327880247924        0.75739996643518
H           -0.15213568778831        0.12976181894124       -1.96248066885663
H           -1.14473263289516        0.98683677004978       -1.01997336372506
N            2.50295786894456        0.45465044725477       -1.60763928216823
C            3.66307053296373        1.22865172879818       -2.00872389114993
H            1.84586680620195        0.28313322487726       -2.37513717184879
C            3.21442781390053        2.54923793067152       -2.61876263318567
O            4.05547870142949        3.23453428583696       -3.15820245469763
O            1.90451090005972        2.90157079926954       -2.52364054339771
H            1.32453317786508        2.22774743184809       -2.06997821841231
C            4.57555235053796        0.40695344527118       -2.93269219287677
H            4.21131877638918        1.45305077168585       -1.08111445688353
C            6.01918040061662        0.78768937106092       -2.86943955108465
H            4.21568826267451        0.49244209966921       -3.96241262634300
H            4.47746733670641       -0.64927854080389       -2.66337384755563
C            7.12529111239799       -0.09215717861957       -2.66896337973387
C            7.22106799601948       -1.47962090475886       -2.46450671582158
C            8.46029931701321       -2.03480129267830       -2.30249978962162
C            9.62146492504958       -1.24579788376555       -2.33879434545363
C            9.55330234912248        0.10620483856815       -2.53545480663268
C            8.29374556179255        0.69525213397658       -2.70300899659356
H            6.33076010940313       -2.08186380705865       -2.43357180279968
H            8.54997709329843       -3.09660517461276       -2.14290750036143
H           10.58209744271498       -1.71583696996111       -2.20731626542501
H           10.43689396916452        0.71820404427230       -2.56433355272596
N            7.90775836135981        2.00591869828057       -2.92106731294760
C            6.54052775825178        2.04712168199435       -3.01861189124668
H            8.54578265652031        2.80000981265515       -2.99940988765680
H            5.95384022855495        2.93660317549115       -3.17644784493917
