48
Energy =
C    -2.0880389   -0.9238646    0.8551130 
C    -0.9264571   -0.4051008    0.3841079 
C    -2.9945625   -0.1200514    1.4724636 
C    -2.7323119    1.1994918    1.6120550 
C    -1.5719492    1.7240141    1.1424172 
C    -0.6588382    0.9222436    0.5297884 
H    -0.2158344   -1.0583637   -0.1146508 
H    -3.4652305    1.8300383    2.1035270 
H    -1.3807131    2.7876197    1.2605722 
H    -2.2907821   -1.9823055    0.7342631 
C     0.6279950    1.5071002   -0.0057739 
C     0.4368720    2.1808222   -1.3831502 
H     1.4049917    0.7203224   -0.0806089 
H     1.0184726    2.2508185    0.7256491 
C     1.6961276    2.9155559   -1.8022711 
O    -4.2011580   -0.6227657    1.9699520 
H    -4.3254510   -1.6181918    1.8215722 
O     1.9023427    4.2102750   -1.3410501 
N     0.0191234    1.1993731   -2.4011935 
H    -0.3418187    2.9768317   -1.2974054 
H     0.5950737    0.3286670   -2.3233984 
H    -0.9755953    0.9198593   -2.2269815 
N     2.7644864    2.2376840   -2.4778771 
C     4.0303548    2.0655478   -1.7422722 
H     2.5735137    1.8255527   -3.4185571 
C     5.0166887    3.1817951   -2.0928861 
O     5.8180729    3.0642599   -3.2248808 
O     5.1512192    4.3194840   -1.2958949 
H     4.4019987    4.3956236   -0.6221232 
C     4.6307650    0.6760530   -2.0596410 
H     3.8523250    2.1214424   -0.6440902 
C     3.7512359   -0.4540857   -1.5760205 
H     5.6331652    0.5775633   -1.5857467 
H     4.7960253    0.5810804   -3.1574483 
C     3.6191338   -0.8865638   -0.3124486 
C     4.2198342   -0.4501197    0.8240916 
C     3.8816525   -1.0443810    2.0042221 
C     2.9585249   -2.0531804    2.0302722 
C     2.3697836   -2.4760308    0.8756919 
C     2.7239112   -1.8751542   -0.2794409 
H     4.9499720    0.3536380    0.8053869 
H     4.3475148   -0.7133296    2.9296043 
H     2.6925726   -2.5199244    2.9756597 
H     1.6329119   -3.2720808    0.8798194 
N     2.2144819   -2.1426315   -1.5782157 
C     2.9322110   -1.1775528   -2.3587843 
H     1.4999264   -2.8443392   -1.8803229 
H     2.8118139   -1.0423890   -3.4316145 
