48
Energy =
C    -3.3688953    3.7018122   -3.5164763 
C    -2.2123762    3.2686831   -4.0853183 
C    -3.5294236    3.6528669   -2.1642432 
C    -2.5315992    3.1684902   -1.3898192 
C    -1.3817338    2.7381341   -1.9624734 
C    -1.2037071    2.7937027   -3.3053216 
H    -2.1037130    3.3045698   -5.1660046 
H    -2.6639113    3.1281018   -0.3143938 
H    -0.4521336    2.3032501   -1.3820830 
H    -4.1658638    4.0832564   -4.1455855 
C     0.0882765    2.2615527   -3.9182520 
C     1.3645471    2.5961107   -3.0761730 
H     0.2007665    2.6924639   -4.9371215 
H     0.0011215    1.1595732   -4.0409588 
C     1.4325653    1.8020291   -1.7652472 
O    -4.7067183    4.0905032   -1.5492301 
H    -5.4035815    4.4402558   -2.1974568 
O     0.4082979    1.8988883   -0.8235784 
N     2.5895132    2.4032161   -3.8824844 
H     1.3184305    3.6674789   -2.7644515 
H     2.6993060    1.3803711   -4.0868647 
H     2.4344442    2.8008728   -4.8408581 
N     2.3576539    0.7253433   -1.6290598 
C     3.8028268    1.0296267   -1.5810807 
H     1.9716136   -0.2419732   -1.6787316 
C     4.2042450    2.4035995   -2.1668244 
O     3.6684219    2.9530902   -3.3658407 
O     5.2231813    3.1392137   -1.5537540 
H     5.6062111    2.6869130   -0.7382450 
C     4.6093459   -0.0988233   -2.2661273 
H     4.0863752    1.0566322   -0.5068195 
C     4.4791380   -1.4213080   -1.5407726 
H     5.6887112    0.1752854   -2.2897497 
H     4.3005569   -0.1970465   -3.3275686 
C     3.7213750   -2.4737701   -1.8941703 
C     2.9015757   -2.6421140   -2.9650851 
C     2.2293014   -3.8223070   -3.0878164 
C     2.3828470   -4.8058235   -2.1505145 
C     3.2097017   -4.6150626   -1.0837792 
C     3.8648635   -3.4394554   -0.9843785 
H     2.7712797   -1.8643469   -3.7104697 
H     1.5667792   -3.9815866   -3.9351196 
H     1.8424886   -5.7433086   -2.2551390 
H     3.3408091   -5.3839318   -0.3299843 
N     4.7590630   -3.0406696    0.0445938 
C     5.1086855   -1.7211024   -0.3909609 
H     5.0751761   -3.5698693    0.8894277 
H     5.7859935   -1.0583465    0.1426470 
