48
Energy =
C    -0.5079759   -3.0292714    2.2244210 
C    -0.8652758   -2.5091246    1.0197469 
C     0.7639951   -2.8743699    2.6886565 
C     1.6700568   -2.2011194    1.9427868 
C     1.3068050   -1.6880982    0.7425202 
C     0.0447327   -1.8215186    0.2776102 
H    -1.8796341   -2.6511508    0.6567486 
H     2.6806738   -2.0776201    2.3153744 
H     2.0002898   -1.0708933    0.0215048 
H    -1.2395333   -3.5726027    2.8126866 
C    -0.2979942   -1.2751051   -1.1000932 
C     0.3039950    0.1352060   -1.4006368 
H    -1.4042424   -1.2189702   -1.2024242 
H     0.0588811   -1.9995177   -1.8650218 
C     1.8402893    0.1404359   -1.5822966 
O     1.1631142   -3.3963885    3.9230049 
H     0.4266187   -3.8844415    4.4205021 
O     2.6619460   -0.4970823   -0.6442535 
N    -0.3812706    0.6995037   -2.5777000 
H     0.1196689    0.8011347   -0.5234551 
H    -0.3533635    0.0155212   -3.3720014 
H    -1.3895451    0.8757687   -2.3515808 
N     2.4564089    1.0397219   -2.5203584 
C     3.9187539    1.2310764   -2.4375984 
H     1.8590235    1.5365642   -3.2190325 
C     4.3380186    2.5820269   -3.0033443 
O     5.0466314    3.4653866   -2.1991663 
O     4.0426364    2.9606027   -4.3152107 
H     3.5440716    2.2379370   -4.8109153 
C     4.6252379    0.0530708   -3.1468857 
H     4.2299246    1.2616990   -1.3647949 
C     6.0954714   -0.0001650   -2.7960193 
H     4.4825423    0.1033541   -4.2469121 
H     4.1562148   -0.9029891   -2.8206016 
C     7.1147350    0.5602940   -3.4672755 
C     7.1125598    1.2757035   -4.6214164 
C     8.3013176    1.7494247   -5.0930192 
C     9.4618826    1.5040392   -4.4127276 
C     9.4402470    0.7844336   -3.2550639 
C     8.2517557    0.3260556   -2.8089944 
H     6.1933909    1.4805505   -5.1606349 
H     8.3237217    2.3315145   -6.0111466 
H    10.4043708    1.8896326   -4.7930490 
H    10.3504474    0.5864043   -2.6995417 
N     8.0107867   -0.4250577   -1.6272499 
C     6.5879323   -0.5870985   -1.6910307 
H     8.6887938   -0.7690063   -0.9094211 
H     5.9893375   -1.0939713   -0.9359928 
