48
Energy =
C    -4.9569863    2.7433409   -0.7047275 
C    -3.6483279    2.4018621   -0.6039395 
C    -5.4108469    3.3970857   -1.8081312 
C    -4.5484337    3.7035236   -2.8051673 
C    -3.2390668    3.3639136   -2.7096685 
C    -2.7783938    2.7137469   -1.6050033 
H    -3.3049297    1.8742753    0.2820919 
H    -4.9160965    4.2229321   -3.6835194 
H    -2.5638535    3.6160175   -3.5235202 
H    -5.6392254    2.4895780    0.0997667 
C    -1.3196882    2.3184171   -1.5078212 
C    -1.0128477    1.0344049   -2.3116274 
H    -1.0233114    2.1771092   -0.4441649 
H    -0.6990704    3.1568433   -1.8964474 
C     0.4854930    0.8062750   -2.3761377 
O    -6.7554493    3.7622514   -1.9414220 
H    -7.3325401    3.4958555   -1.1512571 
O     1.2064777    0.5757100   -1.2040063 
N    -1.6915152   -0.1408858   -1.7405453 
H    -1.3713366    1.1717138   -3.3567986 
H    -1.4891220   -0.2071340   -0.7146683 
H    -2.7264710   -0.0369283   -1.8563751 
N     1.2076062    1.1414518   -3.5726412 
C     2.1010954    2.3086022   -3.5057623 
H     1.0373603    0.5978221   -4.4497832 
C     2.0717747    3.1090761   -4.7949847 
O     1.2802072    4.2463278   -4.8800791 
O     2.8343289    2.7284542   -5.8954460 
H     3.3612588    1.7292649   -5.7113611 
C     3.5220084    1.8299143   -3.1163563 
H     1.7372207    3.0316094   -2.7341804 
C     4.0382884    0.6882503   -3.9865804 
H     3.4735175    1.5039380   -2.0512997 
H     4.2450028    2.6748375   -3.1630343 
C     4.6724243   -0.4107008   -3.5420885 
C     4.9866303   -0.7704462   -2.2647265 
C     5.6476471   -1.9430031   -2.0577715 
C     5.9905100   -2.7350286   -3.1130336 
C     5.6750585   -2.3567911   -4.3811333 
C     5.0170431   -1.1909673   -4.5661464 
H     4.7293882   -0.1580579   -1.4087705 
H     5.9023879   -2.2492809   -1.0458023 
H     6.5177304   -3.6700681   -2.9406273 
H     5.9459687   -2.9770774   -5.2287382 
N     4.6321172   -0.6549430   -5.8242071 
C     3.9491784    0.6149527   -5.5095904 
H     4.8295359   -1.1106368   -6.7487543 
H     3.7341703    0.9141732   -6.5598872 
