48
Energy =
C     1.1237130    5.2746056    2.6250844 
C     1.9377583    4.1980017    2.4848247 
C    -0.1640247    5.2193072    2.1921772 
C    -0.6279328    4.0841980    1.6226354 
C     0.1820626    3.0049979    1.4796875 
C     1.4739674    3.0549030    1.9060034 
H     2.9648352    4.2591493    2.8342122 
H    -1.6571978    4.0491575    1.2825582 
H    -0.2174567    2.1025532    1.0264279 
H     1.5044088    6.1802533    3.0838412 
C     2.3904193    1.8556771    1.7407029 
C     3.1477044    1.8120935    0.3826278 
H     1.8010572    0.9192485    1.8708407 
H     3.1353892    1.8448422    2.5661655 
C     2.2516062    1.4456147   -0.8113061 
O    -1.0299553    6.3112808    2.3217559 
H    -0.6080776    7.1266474    2.7522550 
O     1.0850705    0.7330542   -0.5613556 
N     3.8951900    3.0623550    0.1744858 
H     3.8734599    0.9695576    0.4473478 
H     3.2367774    3.8706519    0.0707508 
H     4.5139847    3.2588768    0.9961272 
N     2.6552262    1.5232401   -2.1969526 
C     4.0778903    1.8084989   -2.5106180 
H     1.9912026    2.1624781   -2.6903008 
C     4.3772184    3.2951078   -2.6835054 
O     5.6666613    3.7640701   -2.4716517 
O     3.4325190    4.1673079   -3.2096710 
H     2.7863754    4.4251975   -2.4784797 
C     4.4161395    1.0395643   -3.8044055 
H     4.7545732    1.4505235   -1.7035453 
C     5.9092223    0.9440134   -4.0378269 
H     3.9243817    1.5341710   -4.6735109 
H     3.9797464    0.0176050   -3.7558862 
C     6.7303359   -0.0228276   -3.5981453 
C     6.4531299   -1.1407735   -2.8779753 
C     7.4846591   -1.9682333   -2.5437578 
C     8.7630636   -1.6676693   -2.9251179 
C     9.0182213   -0.5366366   -3.6421874 
C     7.9808275    0.2640836   -3.9641197 
H     5.4406762   -1.3795156   -2.5662385 
H     7.2899553   -2.8703227   -1.9685073 
H     9.5802132   -2.3307323   -2.6521024 
H    10.0273942   -0.2795733   -3.9459417 
N     8.0323325    1.4883751   -4.6819571 
C     6.6488701    1.8698618   -4.6746798 
H     8.8546432    1.9737136   -5.1087008 
H     6.2625499    2.8108215   -5.0679512 
