48
Energy =
C    -2.3627440    5.2698927   -0.8532913 
C    -1.3111941    5.2232329   -1.7098086 
C    -2.2073726    4.8872416    0.4423457 
C    -0.9985177    4.4608140    0.8723272 
C     0.0571760    4.4151916    0.0216096 
C    -0.0933326    4.7908064   -1.2790886 
H    -1.4539561    5.5351090   -2.7409605 
H    -0.8872395    4.1534016    1.9062085 
H     1.0195565    4.0625311    0.3874447 
H    -3.3283741    5.6148729   -1.2069637 
C     1.0837192    4.7414837   -2.2324328 
C     1.2342550    3.3991965   -3.0059004 
H     2.0206519    4.9648914   -1.6685881 
H     1.0007376    5.5713901   -2.9670450 
C     1.6261707    2.2283435   -2.1094082 
O    -3.2707535    4.9252654    1.3504426 
H    -4.1440411    5.2485308    0.9491093 
O     0.7644993    1.8028083   -1.1053507 
N     0.0291118    3.0976190   -3.8015545 
H     2.0936651    3.5195898   -3.7052817 
H    -0.7669227    2.8548722   -3.1614130 
H    -0.2553445    3.9336634   -4.3633508 
N     2.7157223    1.3606733   -2.4618551 
C     4.1128386    1.8644495   -2.4271422 
H     2.4550111    0.4508610   -2.9013607 
C     4.2344459    3.2563358   -1.7981308 
O     4.1935458    4.3866682   -2.6054901 
O     4.1840190    3.4399304   -0.4202589 
H     4.1049219    2.5624909    0.0733007 
C     4.8180763    1.7771401   -3.8227485 
H     4.6811869    1.1948899   -1.7448402 
C     3.9849312    1.1941813   -4.9446758 
H     5.7493489    1.1774156   -3.7253183 
H     5.1795204    2.7789564   -4.1497224 
C     3.7921483   -0.1066761   -5.2124702 
C     4.2703195   -1.2058201   -4.5748067 
C     3.9098835   -2.4345532   -5.0445056 
C     3.0854970   -2.5444273   -6.1304106 
C     2.6158868   -1.4257639   -6.7528662 
C     2.9880536   -0.2217359   -6.2702549 
H     4.9193409   -1.1183740   -3.7084338 
H     4.2780982   -3.3313091   -4.5518086 
H     2.8013644   -3.5273599   -6.4978831 
H     1.9583848   -1.4950014   -7.6128146 
N     2.6061885    1.0562104   -6.7596115 
C     3.2960258    1.9177648   -5.8441600 
H     1.9915090    1.2992791   -7.5700664 
H     3.2724034    3.0045488   -5.8837356 
