48
Energy =
C    -0.7220206    5.9936343   -0.2253409 
C    -0.0527102    5.0951273    0.5449804 
C    -0.8292668    5.7993298   -1.5697269 
C    -0.2636609    4.7083049   -2.1345357 
C     0.4028527    3.8173226   -1.3615674 
C     0.5037007    3.9905722   -0.0222136 
H     0.0362184    5.2699658    1.6139521 
H    -0.3503234    4.5596279   -3.2047583 
H     0.9197422    2.8314644   -1.7496540 
H    -1.1662405    6.8692565    0.2355840 
C     1.3056844    2.9943863    0.8053397 
C     1.1162535    1.5068740    0.3743939 
H     1.0161787    3.0932987    1.8746391 
H     2.3839505    3.2646703    0.7411921 
C     1.7505247    1.1827311   -0.9917173 
O    -1.5118195    6.7031479   -2.3899334 
H    -1.9025841    7.4951235   -1.8913629 
O     1.3994178    1.9146586   -2.1275438 
N     1.6338757    0.6231203    1.4338136 
H     0.0265889    1.3048313    0.2445282 
H     2.6235133    0.8844725    1.6646627 
H     1.0724443    0.7512384    2.3089923 
N     2.5402006    0.0017678   -1.1650789 
C     3.9760542    0.1626597   -1.4570165 
H     2.0707317   -0.9276783   -1.0979541 
C     4.6678880    1.0924270   -0.4526295 
O     4.6594124    2.4692949   -0.6522041 
O     5.2490357    0.5970261    0.7172167 
H     5.1054473   -0.3972214    0.8188830 
C     4.1528504    0.6000360   -2.9280035 
H     4.4558561   -0.8344521   -1.3459440 
C     5.5942905    0.4969111   -3.3797489 
H     3.7593852    1.6288707   -3.0762425 
H     3.5309347   -0.0550587   -3.5775113 
C     6.4770953    1.4984740   -3.5372845 
C     6.3236442    2.8375653   -3.3666974 
C     7.3962247    3.6483273   -3.5953470 
C     8.5927521    3.1171059   -3.9890847 
C     8.7242644    1.7709704   -4.1566732 
C     7.6491350    0.9891049   -3.9234816 
H     5.3776805    3.2676759   -3.0538169 
H     7.2984534    4.7229156   -3.4609221 
H     9.4428682    3.7705869   -4.1677402 
H     9.6666553    1.3334302   -4.4679529 
N     7.5776905   -0.4248714   -4.0383265 
C     6.2143866   -0.6612550   -3.6678054 
H     8.3199277   -1.1063010   -4.3176245 
H     5.7531922   -1.6447131   -3.6235618 
