48
Energy =
C    -1.1984295    5.1862351   -6.1029448 
C    -0.8303802    4.3421040   -5.1059927 
C    -0.8159488    4.9388226   -7.3842960 
C    -0.0659650    3.8473591   -7.6586355 
C     0.3050914    2.9998813   -6.6657609 
C    -0.0774069    3.2419133   -5.3819589 
H    -1.1437878    4.5527720   -4.0863017 
H     0.2345048    3.6620829   -8.6839688 
H     0.9113960    2.1310353   -6.9074202 
H    -1.7990834    6.0595140   -5.8728189 
C     0.3418128    2.3098282   -4.2673300 
C     1.5027840    2.8929474   -3.4184060 
H     0.6336878    1.3146118   -4.6703112 
H    -0.5441150    2.1246817   -3.6159724 
C     1.6567252    2.1157204   -2.1324686 
O    -1.1790891    5.7877886   -8.4351163 
H    -1.7342560    6.5856779   -8.1461953 
O     0.6817012    2.2200384   -1.1483413 
N     2.7676292    2.9073091   -4.1856925 
H     1.2602442    3.9316355   -3.0928524 
H     2.9763769    1.9318195   -4.5067871 
H     2.5921300    3.4116752   -5.0886348 
N     2.5801275    1.0269173   -2.0727452 
C     4.0229530    1.3424318   -2.0358341 
H     2.2012693    0.0554561   -2.1227163 
C     4.3955453    2.7817011   -2.4843652 
O     3.7756455    3.4798896   -3.5610664 
O     5.4431935    3.4506869   -1.8446722 
H     5.8907288    2.8940708   -1.1326464 
C     4.7925031    0.2732059   -2.8432642 
H     4.3328131    1.2584507   -0.9713333 
C     6.2869734    0.3807948   -2.6366836 
H     4.5585929    0.3690140   -3.9253447 
H     4.4569268   -0.7431518   -2.5429613 
C     6.9975152   -0.1420047   -1.6252726 
C     6.5901266   -0.9051069   -0.5785608 
C     7.5218491   -1.3003911    0.3358013 
C     8.8301360   -0.9276985    0.1944958 
C     9.2145744   -0.1561753   -0.8618481 
C     8.2750741    0.2186534   -1.7550374 
H     5.5507796   -1.1966155   -0.4602622 
H     7.2223881   -1.9125151    1.1832289 
H     9.5662165   -1.2441768    0.9292954 
H    10.2465577    0.1546744   -0.9847091 
N     8.4579823    1.0350298   -2.9027223 
C     7.1189193    1.0980669   -3.4126487 
H     9.3334208    1.4683532   -3.2766047 
H     6.8126914    1.6898482   -4.2746971 
