48
Energy =
C     0.6997161   -3.1168095   -1.4825007 
C     0.9227859   -2.1173800   -0.5925430 
C     1.3996444   -4.2792272   -1.3941918 
C     2.3182540   -4.4333554   -0.4135748 
C     2.5470781   -3.4361251    0.4780695 
C     1.8454286   -2.2729394    0.3966187 
H     0.3674042   -1.1860186   -0.6869531 
H     2.8704941   -5.3648509   -0.3552361 
H     3.2962481   -3.5751597    1.2531296 
H    -0.0350786   -2.9799200   -2.2686271 
C     2.1351383   -1.1398079    1.3557425 
C     3.3253610   -0.2810897    0.8723597 
H     2.3516150   -1.5576435    2.3632477 
H     1.2342149   -0.4942130    1.4747048 
C     3.0152811    0.4093568   -0.4539864 
O     1.2003838   -5.3262537   -2.2997423 
H     0.4833385   -5.1395633   -2.9925761 
O     1.9353309    1.2814183   -0.5255546 
N     3.6792762    0.7079524    1.9003734 
H     4.2053389   -0.9433189    0.7085844 
H     2.8763168    1.3674994    2.0481213 
H     3.8726191    0.2329127    2.8126691 
N     3.5811199   -0.0634707   -1.6889181 
C     4.9901539    0.3694293   -1.8478632 
H     3.5100732   -1.1065767   -1.6788370 
C     5.1509336    1.8829440   -2.0083693 
O     6.3755216    2.4535299   -1.6846438 
O     4.1769656    2.6914925   -2.5902517 
H     3.3234142    2.1746199   -2.7508560 
C     5.6301084   -0.3771194   -3.0405379 
H     5.5832899    0.1041227   -0.9419681 
C     4.8978623   -0.1311897   -4.3447936 
H     5.6353143   -1.4686037   -2.8264905 
H     6.6989670   -0.0838008   -3.1431164 
C     5.1210035    0.8554676   -5.2297121 
C     6.0375595    1.8580947   -5.2096048 
C     6.0475580    2.7491615   -6.2424243 
C     5.1540404    2.6257995   -7.2700517 
C     4.2429993    1.6118773   -7.2696952 
C     4.2519357    0.7438664   -6.2364506 
H     6.7400071    1.9699954   -4.3885441 
H     6.7638220    3.5677603   -6.2422186 
H     5.1649110    3.3434818   -8.0867276 
H     3.5228235    1.5030148   -8.0734936 
N     3.3862562   -0.3651802   -6.0420735 
C     3.8685633   -0.8728759   -4.7913145 
H     2.6114873   -0.7178488   -6.6496420 
H     3.4457997   -1.7295898   -4.2718868 
