48
Energy =
C     0.0371912   -1.9498061    2.4055916 
C     0.9840096   -1.0389447    2.7454530 
C    -1.1712916   -1.5373101    1.9383023 
C    -1.4238609   -0.2149438    1.8143191 
C    -0.4812775    0.6997337    2.1535511 
C     0.7299293    0.2938962    2.6249674 
H     1.9494013   -1.3844814    3.1087287 
H    -2.3893560    0.1015328    1.4360972 
H    -0.6981328    1.7578081    2.0380516 
H     0.2518463   -3.0084305    2.5050977 
C     1.7957921    1.3127951    2.9800735 
C     2.6141710    1.7676281    1.7499721 
H     2.4865185    0.8906342    3.7451540 
H     1.3228884    2.1975419    3.4595036 
C     3.3392066    0.5956898    1.1009033 
O    -2.1681931   -2.4490396    1.5768738 
H    -1.9028920   -3.4197658    1.7039726 
O     4.1119010   -0.2489154    1.8920246 
N     1.7268508    2.4762698    0.8081912 
H     3.4231489    2.4567429    2.0945165 
H     1.3182071    3.3096633    1.2925451 
H     2.3055922    2.8838373    0.0346069 
N     3.5120146    0.5393782   -0.3189720 
C     4.8181482    0.9793258   -0.8415053 
H     2.7308682    0.1431909   -0.8872236 
C     4.9026190    2.4905068   -0.9245771 
O     5.4424539    3.2041386    0.1340116 
O     4.3993627    3.1891488   -2.0084235 
H     3.8393039    2.4794735   -2.7048563 
C     5.1189177    0.2863390   -2.1881735 
H     5.6273999    0.6838782   -0.1278213 
C     3.9930104    0.4014808   -3.2042476 
H     5.3483648   -0.7762605   -1.9595594 
H     6.0450016    0.7186576   -2.6323482 
C     3.5125870   -0.5991191   -3.9609583 
C     3.9153827   -1.8984586   -4.0343477 
C     3.2653316   -2.7389857   -4.8876460 
C     2.2333730   -2.2790336   -5.6520212 
C     1.8493773   -0.9761021   -5.5673007 
C     2.5082577   -0.1603257   -4.7140213 
H     4.7385928   -2.2798801   -3.4420468 
H     3.5719874   -3.7798939   -4.9611956 
H     1.7180683   -2.9533298   -6.3320210 
H     1.0320500   -0.5961128   -6.1713981 
N     2.2352004    1.2168766   -4.5101943 
C     3.2031092    1.6746483   -3.4963302 
H     1.4899013    1.7737508   -4.9925727 
H     2.8282947    2.7193166   -3.5274611 
