48
Energy =
C     7.5871679   -0.8134845    0.0741814 
C     6.4523453   -1.3739298    0.5635617 
C     7.8985551    0.4746120    0.3728700 
C     7.0812414    1.1893148    1.1778257 
C     5.9467785    0.6322980    1.6758471 
C     5.6169655   -0.6498421    1.3578831 
H     6.2149838   -2.4029937    0.3071845 
H     7.3446468    2.2162132    1.4105856 
H     5.2992050    1.2242867    2.3198456 
H     8.2434812   -1.3951927   -0.5619878 
C     4.3218506   -1.2524814    1.8636785 
C     3.1187868   -1.0388383    0.9061496 
H     4.0749768   -0.8102275    2.8563909 
H     4.4612855   -2.3393537    2.0523827 
C     2.8502325    0.4369815    0.6176409 
O     9.0488078    1.0861417   -0.1341436 
H     9.5836872    0.4974716   -0.7620636 
O     2.6240857    1.2893458    1.6902869 
N     3.2696097   -1.8441135   -0.3182493 
H     2.2002814   -1.3821306    1.4376090 
H     4.1497026   -1.5732296   -0.8107737 
H     3.3617175   -2.8557435   -0.0617913 
N     2.6305119    0.9387806   -0.7143120 
C     3.8891741    1.4210414   -1.3374491 
H     2.1348061    0.1985604   -1.2600980 
C     3.9600391    2.9440923   -1.2325830 
O     3.5309719    3.7398456   -2.2899277 
O     4.4376887    3.5730463   -0.0857511 
H     4.4358656    2.9470759    0.7049509 
C     3.9975240    0.9344914   -2.8112470 
H     4.7892904    1.0397098   -0.8012257 
C     5.4088007    1.0989789   -3.3499338 
H     3.2819096    1.4977006   -3.4545236 
H     3.6973293   -0.1308656   -2.8902373 
C     6.3653182    0.1547284   -3.4218680 
C     6.3162111   -1.1684884   -3.1147721 
C     7.4423706   -1.9182886   -3.2853050 
C     8.5915079   -1.3429470   -3.7502190 
C     8.6184831   -0.0149698   -4.0559841 
C     7.4897404    0.7045682   -3.8852035 
H     5.4089063   -1.6372189   -2.7561081 
H     7.4240209   -2.9810062   -3.0532970 
H     9.4850653   -1.9483152   -3.8860460 
H     9.5188822    0.4581275   -4.4327106 
N     7.3084650    2.0865121   -4.1529508 
C     5.9350442    2.2612935   -3.7815013 
H     7.9884245    2.7857310   -4.5304770 
H     5.4070124    3.2126760   -3.8276850 
