48
Energy =
C     2.5897495    5.7981935   -0.1463769 
C     2.4213514    4.5553127    0.3701946 
C     1.5118634    6.5902966   -0.3863244 
C     0.2710651    6.1322438   -0.1050201 
C     0.0968260    4.8874449    0.4066761 
C     1.1723238    4.0833515    0.6363762 
H     3.2961691    3.9429775    0.5648936 
H    -0.5814959    6.7748465   -0.2966229 
H    -0.9090190    4.5410610    0.6288027 
H     3.5893511    6.1553181   -0.3679831 
C     0.9750008    2.6890290    1.1983659 
C     0.2460726    1.7498765    0.2084037 
H     0.3779065    2.7783371    2.1323874 
H     1.9448692    2.2290755    1.4954009 
C     1.1102203    1.3879483   -0.9930083 
O     1.6505144    7.8782972   -0.9144907 
H     2.6084025    8.1401839   -1.1210315 
O     0.6997670    1.8271909   -2.2463617 
N    -0.2205390    0.5469363    0.9210064 
H    -0.6448061    2.2706256   -0.2154713 
H     0.5843653    0.0852800    1.4095237 
H    -0.9178284    0.8159273    1.6549183 
N     1.9978395    0.2599231   -0.9090023 
C     3.3915158    0.4635848   -1.3908031 
H     1.5171900   -0.5270572   -1.3997246 
C     3.9802920    1.8737684   -1.2161819 
O     4.9419458    2.0758580   -0.2320219 
O     3.6050877    2.9776500   -1.9803257 
H     2.8740577    2.7523273   -2.6364556 
C     3.6741580   -0.2253965   -2.7565417 
H     4.0116171   -0.1286834   -0.6800184 
C     3.0711104    0.4483472   -3.9691360 
H     3.3115274   -1.2769253   -2.7176553 
H     4.7736354   -0.3150567   -2.8975067 
C     3.6734504    1.3270445   -4.7887635 
C     4.9193575    1.8650437   -4.7275587 
C     5.2887951    2.7574790   -5.6906169 
C     4.4187795    3.0951858   -6.6899571 
C     3.1729583    2.5436274   -6.7308515 
C     2.8310530    1.6635508   -5.7666524 
H     5.6076998    1.6119166   -3.9273107 
H     6.2779246    3.2073665   -5.6594911 
H     4.7192273    3.8094672   -7.4519659 
H     2.4685917    2.8035223   -7.5134779 
N     1.5918319    0.9871150   -5.6234915 
C     1.8324382    0.2184742   -4.4378519 
H     0.7391616    1.0267404   -6.2263492 
H     1.1039106   -0.4451497   -3.9791592 
