48
Energy =
C    -3.1136188    0.7172667   -2.9471911 
C    -1.8240902    1.0238517   -2.6563991 
C    -4.1234071    1.5050443   -2.4897177 
C    -3.8346237    2.5952256   -1.7431807 
C    -2.5468183    2.9066878   -1.4492329 
C    -1.5327646    2.1228318   -1.9075153 
H    -1.0275414    0.3836669   -3.0265634 
H    -4.6489051    3.2143703   -1.3831607 
H    -2.3363460    3.7844846   -0.8436512 
H    -3.3351421   -0.1598802   -3.5453657 
C    -0.0960396    2.4539270   -1.5727140 
C     0.4652638    1.5647625   -0.4396567 
H     0.0170198    3.5250813   -1.2901241 
H     0.5241602    2.3275118   -2.4872866 
C     1.9686546    1.7357349   -0.3360462 
O    -5.4631588    1.2167545   -2.7703489 
H    -5.5955599    0.3858014   -3.3362657 
O     2.4575349    2.8644263   -0.1782651 
N    -0.1789733    1.8794913    0.8445754 
H     0.2796071    0.4933373   -0.6819686 
H    -0.0351647    2.8930993    1.0696170 
H    -1.2086377    1.7070286    0.7793564 
N     2.8473855    0.6507777   -0.6730362 
C     3.9808358    1.0441500   -1.5263641 
H     2.6467418   -0.3315257   -0.3769444 
C     4.1941698    2.5552908   -1.4427113 
O     5.1425572    3.1721870   -2.2525014 
O     3.5080873    3.2368341   -0.6649809 
H     3.3549263    2.9105951    0.2681754 
C     3.7006085    0.5957653   -2.9745686 
H     4.9146490    0.5752975   -1.1475695 
C     3.6351263   -0.9094945   -3.0861319 
H     4.4904736    0.9817272   -3.6575486 
H     2.7410360    1.0421299   -3.3178449 
C     4.6741378   -1.7552365   -3.1550190 
C     6.0068686   -1.4965002   -3.1750324 
C     6.8698517   -2.5507652   -3.2428357 
C     6.3931543   -3.8321063   -3.2870175 
C     5.0501425   -4.0670090   -3.2632199 
C     4.2168665   -3.0074364   -3.1977887 
H     6.3864617   -0.4793060   -3.1381151 
H     7.9423682   -2.3713980   -3.2610246 
H     7.0874251   -4.6671047   -3.3397997 
H     4.6555197   -5.0769170   -3.2942883 
N     2.7969720   -3.0315257   -3.1518275 
C     2.5009451   -1.6312431   -3.0740057 
H     2.1468667   -3.8503293   -3.1689592 
H     1.4985841   -1.2183874   -2.9915312 
