48
Energy =
C    -1.2045030    1.1594402    0.6019849 
C    -0.1261791    0.4739623    1.0608713 
C    -2.3175001    0.4908188    0.1980267 
C    -2.3418324   -0.8604071    0.2519258 
C    -1.2646446   -1.5508460    0.7043092 
C    -0.1528974   -0.8864806    1.1202231 
H     0.7675310    1.0181398    1.3646254 
H    -3.2332067   -1.3820564   -0.0784731 
H    -1.2976408   -2.6371282    0.7262418 
H    -1.1728756    2.2426851    0.5522169 
C     1.0642021   -1.6559905    1.5867265 
C     2.0027342   -1.9986625    0.4131930 
H     0.7394655   -2.5939678    2.0863653 
H     1.6232163   -1.0697165    2.3493036 
C     2.5223540   -0.7358625   -0.2783891 
O    -3.4452749    1.1659184   -0.2798506 
H    -3.3396285    2.1741895   -0.3121361 
O     3.1967982    0.2348665    0.4607119 
N     3.1121421   -2.8369448    0.8745212 
H     1.4327454   -2.6116088   -0.3203925 
H     3.6669780   -2.3068756    1.5885098 
H     2.7260363   -3.6871126    1.3461376 
N     2.0126396   -0.3700366   -1.5655856 
C     2.9762727    0.1401879   -2.5553523 
H     1.0065811   -0.5545585   -1.7871357 
C     2.4076623    1.3779412   -3.2393324 
O     1.9099916    1.3005736   -4.5355103 
O     2.3386950    2.5981378   -2.5681067 
H     2.6349369    2.5089276   -1.6046505 
C     3.3263341   -0.9911676   -3.5511412 
H     3.9107434    0.5010709   -2.0590571 
C     4.4171126   -1.8892586   -3.0145560 
H     3.6575034   -0.5676594   -4.5250805 
H     2.4168063   -1.5870964   -3.7873410 
C     5.7405944   -1.7478824   -3.2054485 
C     6.4251494   -0.8161365   -3.9195303 
C     7.7871790   -0.8881310   -3.9413705 
C     8.4380594   -1.8747223   -3.2536462 
C     7.7306688   -2.7945575   -2.5380743 
C     6.3841797   -2.7048467   -2.5351008 
H     5.9139727   -0.0246651   -4.4591487 
H     8.3584971   -0.1541467   -4.5052122 
H     9.5240734   -1.9230103   -3.2727563 
H     8.2307990   -3.5783941   -1.9796706 
N     5.4694619   -3.5418220   -1.8406968 
C     4.2137910   -2.9357626   -2.1967257 
H     5.6757033   -4.3770645   -1.2427890 
H     3.2373344   -3.2216055   -1.7883390 
