48
Energy =
C    -0.1644799    5.3011368   -0.1764388 
C     0.5699694    4.7222823   -1.1613539 
C    -1.3718486    5.8564451   -0.4619871 
C    -1.8367605    5.8268648   -1.7312358 
C    -1.1073356    5.2471995   -2.7180787 
C     0.1036094    4.6895377   -2.4383909 
H     1.5292716    4.2684534   -0.9223133 
H    -2.8019120    6.2722027   -1.9459243 
H    -1.5021337    5.2330548   -3.7302226 
H     0.2132965    5.3142792    0.8403417 
C     0.9204451    4.0387682   -3.5382581 
C     0.7599808    2.4949755   -3.6353187 
H     1.9961326    4.3045773   -3.4082198 
H     0.6391900    4.4824443   -4.5178493 
C     1.5994032    1.7312679   -2.6185305 
O    -2.1528577    6.4623030    0.5275417 
H    -1.7413824    6.4307751    1.4538706 
O     1.3857887    1.8729680   -1.2517343 
N    -0.6533425    2.0886040   -3.5809830 
H     1.1644067    2.1870672   -4.6276718 
H    -1.0082974    2.2097837   -2.6001335 
H    -1.2303578    2.6958893   -4.2068279 
N     2.7238912    0.9603160   -3.0560626 
C     4.0576922    1.4034227   -2.6072120 
H     2.5627689    0.1901793   -3.7429417 
C     4.2193537    2.9212909   -2.7055209 
O     4.5055325    3.5131147   -3.9299268 
O     3.9837098    3.7541859   -1.6127778 
H     3.7298229    3.2145298   -0.7955998 
C     5.1347245    0.6571177   -3.4219391 
H     4.1718976    1.1251951   -1.5355440 
C     6.5274264    0.9577514   -2.9122295 
H     5.0546701    0.9472053   -4.4944400 
H     4.9502676   -0.4380883   -3.3763456 
C     7.1668005    0.3393349   -1.9075697 
C     6.7672611   -0.7001614   -1.1304285 
C     7.6114465   -1.1401832   -0.1536921 
C     8.8258433   -0.5393136    0.0323614 
C     9.2030216    0.5068121   -0.7564590 
C     8.3520842    0.9217607   -1.7181417 
H     5.7999694   -1.1739788   -1.2704954 
H     7.3154684   -1.9707357    0.4828861 
H     9.4914489   -0.8938985    0.8154161 
H    10.1593820    0.9994157   -0.6168903 
N     8.5406891    1.9984216   -2.6255357 
C     7.3062615    1.9602134   -3.3568020 
H     9.3596859    2.6399694   -2.7336091 
H     7.0168775    2.6751066   -4.1279897 
