48
Energy =
C     3.8358845    2.3427747    2.1600408 
C     2.5015579    2.4284194    1.9296823 
C     4.3768932    1.1849412    2.6236772 
C     3.5763223    0.1207736    2.8585284 
C     2.2420022    0.1993255    2.6265301 
C     1.6949912    1.3544094    2.1560966 
H     2.0892717    3.3609227    1.5488114 
H     4.0185293   -0.7971152    3.2299470 
H     1.6179032   -0.6704566    2.8124661 
H     4.4691073    3.2018834    1.9623440 
C     0.2104368    1.4358174    1.8613435 
C    -0.1408523    1.1185804    0.3862270 
H    -0.1576349    2.4569744    2.1128302 
H    -0.3493615    0.7453635    2.5293912 
C     0.4940372    2.1109151   -0.5810612 
O     5.7490467    1.0598964    2.8624477 
H     6.2788506    1.8994102    2.6515022 
O     0.1481757    3.4532584   -0.4794419 
N     0.1666680   -0.2860441    0.0576512 
H    -1.2374010    1.2688174    0.2586856 
H     1.1919033   -0.4676448    0.1521906 
H    -0.3291873   -0.9224382    0.7253072 
N     1.1619628    1.6694944   -1.7689196 
C     2.6169174    1.4458883   -1.6762782 
H     0.5858648    1.5008049   -2.6232367 
C     3.4069758    2.7118056   -1.9714147 
O     3.8585436    3.4985298   -0.9197259 
O     3.7251282    3.0863909   -3.2707055 
H     3.2051740    2.4029977   -4.0217814 
C     3.0293808    0.2571712   -2.5742555 
H     2.8970706    1.1743015   -0.6320305 
C     2.5442746    0.3752166   -4.0123644 
H     2.6330531   -0.6624344   -2.0961610 
H     4.1388720    0.1585014   -2.5825026 
C     1.9692481   -0.6042952   -4.7302776 
C     1.7008126   -1.8924417   -4.3761156 
C     1.1062845   -2.7127245   -5.2872923 
C     0.7916865   -2.2464451   -6.5297303 
C     1.0721549   -0.9580852   -6.8663245 
C     1.6614818   -0.1610051   -5.9471253 
H     1.9483900   -2.2838214   -3.3966014 
H     0.8830401   -3.7437198   -5.0231582 
H     0.3179262   -2.9054194   -7.2532563 
H     0.8299768   -0.5750138   -7.8520311 
N     2.0227266    1.1979163   -6.1433123 
C     2.6202144    1.6365621   -4.8689182 
H     1.8809920    1.7445772   -7.0265198 
H     2.8415355    2.6688703   -5.2172939 
