48
Energy =
C    -1.1696234    4.1534633   -6.5556462 
C    -1.2677643    3.4139610   -5.4218657 
C    -0.1899051    5.0888644   -6.6794919 
C     0.6852736    5.2782039   -5.6658026 
C     0.5917435    4.5419916   -4.5299242 
C    -0.3884096    3.6059396   -4.4008557 
H    -2.0540827    2.6680190   -5.3380575 
H     1.4621933    6.0267877   -5.7757939 
H     1.3064230    4.7075919   -3.7256838 
H    -1.8759968    3.9940923   -7.3630787 
C    -0.4781446    2.7733676   -3.1422834 
C     0.5896426    1.6527711   -3.1106423 
H    -1.4929820    2.3332332   -3.0197106 
H    -0.3414060    3.4458223   -2.2627161 
C     0.7617335    1.0834504   -1.7130705 
O    -0.0594223    5.8651942   -7.8358645 
H    -0.7592857    5.6707131   -8.5434123 
O    -0.2067974    1.2788940   -0.7364305 
N     0.2523975    0.5835484   -4.0636087 
H     1.5766284    2.0920849   -3.3816486 
H    -0.6913799    0.1938878   -3.8272260 
H     0.1921721    0.9792251   -5.0309183 
N     1.9562034    0.3851357   -1.3443066 
C     3.2146005    1.1365596   -1.1389007 
H     1.9056813   -0.6568471   -1.2829212 
C     3.0154069    2.6512798   -0.9952159 
O     3.4980046    3.5155148   -1.9722920 
O     2.3324380    3.1944268    0.0890573 
H     1.8244614    2.4793605    0.5950657 
C     4.2137384    0.7788429   -2.2643977 
H     3.6540884    0.8196010   -0.1670008 
C     4.6565987   -0.6657412   -2.1868708 
H     5.1164583    1.4282778   -2.1932135 
H     3.7637369    0.9925774   -3.2572226 
C     4.1305554   -1.7123242   -2.8445424 
C     3.1109840   -1.7576794   -3.7404098 
C     2.7585286   -2.9674024   -4.2613656 
C     3.4225339   -4.1018550   -3.8845154 
C     4.4425312   -4.0330152   -2.9824969 
C     4.7726508   -2.8240113   -2.4815195 
H     2.5762723   -0.8614053   -4.0374668 
H     1.9426705   -3.0286794   -4.9776535 
H     3.1340956   -5.0626057   -4.3035160 
H     4.9769642   -4.9235121   -2.6697006 
N     5.7860365   -2.5373883   -1.5280384 
C     5.6401355   -1.1184227   -1.3892656 
H     6.4540967   -3.1893064   -1.0561885 
H     6.2401797   -0.5020052   -0.7232757 
