48
Energy =
C    -1.1264899    0.2347103   -7.9876085 
C    -0.9221003   -0.2869596   -6.7514409 
C    -1.0110674    1.5743570   -8.1925184 
C    -0.6900390    2.3834085   -7.1573900 
C    -0.4857027    1.8677253   -5.9191573 
C    -0.6043192    0.5277919   -5.7080632 
H    -1.0105183   -1.3603904   -6.6055668 
H    -0.5958256    3.4493309   -7.3334273 
H    -0.2210953    2.5342588   -5.1003803 
H    -1.3800655   -0.4224774   -8.8122465 
C    -0.3588735   -0.0467433   -4.3305306 
C     1.1455846   -0.0929471   -3.9815684 
H    -0.7965874   -1.0656745   -4.2350227 
H    -0.8955828    0.5850097   -3.5870261 
C     1.3437512   -0.3830006   -2.5024886 
O    -1.2150955    2.1431954   -9.4542433 
H    -1.4505186    1.4707496  -10.1756618 
O     0.8770099   -1.5821064   -1.9749199 
N     1.8467824   -1.0931324   -4.8079022 
H     1.5910423    0.9077761   -4.1734108 
H     1.3833578   -2.0284992   -4.6995003 
H     1.7780026   -0.8265336   -5.8188145 
N     1.7212331    0.6554823   -1.5884321 
C     3.0717975    1.2625116   -1.6173235 
H     1.0102491    0.9478406   -0.8814439 
C     3.0472292    2.6513179   -2.2549868 
O     1.9964492    3.0314924   -3.0818250 
O     4.0860904    3.5586741   -2.0454932 
H     4.7767783    3.2091641   -1.3994037 
C     4.1452835    0.3509118   -2.2758385 
H     3.3707418    1.4356469   -0.5607422 
C     4.4277551   -0.8914857   -1.4565443 
H     5.0987157    0.9112813   -2.3902920 
H     3.8488904    0.0682349   -3.3113269 
C     5.1366925   -0.9578130   -0.3174556 
C     5.7689795    0.0257421    0.3737443 
C     6.4335218   -0.3092563    1.5169056 
C     6.4589368   -1.6076310    1.9457137 
C     5.8214977   -2.5792229    1.2327731 
C     5.1704194   -2.2225002    0.1059269 
H     5.7550517    1.0561765    0.0333344 
H     6.9465889    0.4596621    2.0900192 
H     6.9905868   -1.8673712    2.8581186 
H     5.8334275   -3.6145842    1.5571620 
N     4.4572546   -3.0737412   -0.7784016 
C     4.0093775   -2.1329337   -1.7639731 
H     4.3089339   -4.1085148   -0.7360949 
H     3.4056970   -2.3950529   -2.6315135 
