48
Energy =
C    -1.1371345    6.1567443   -0.8700265 
C    -1.0880795    5.0632271   -0.0681051 
C    -0.5884909    6.1226781   -2.1148452 
C     0.0106862    4.9873652   -2.5468391 
C     0.0382155    3.8856762   -1.7552330 
C    -0.4939305    3.9170510   -0.5038828 
H    -1.5290070    5.1152810    0.9223021 
H     0.4936443    4.9599082   -3.5227632 
H     0.5331126    2.9954069   -2.1240714 
H    -1.6162555    7.0602666   -0.5139810 
C    -0.4547255    2.6885135    0.3914515 
C     0.9711492    2.1284551    0.7046065 
H    -1.0795706    1.9016951   -0.0874921 
H    -0.9512606    2.9130554    1.3592862 
C     1.3816477    0.9897692   -0.2339184 
O    -0.6447017    7.2410509   -2.9591086 
H    -1.0305196    8.0652229   -2.5209335 
O     0.5208720   -0.1087710   -0.2527178 
N     1.9714667    3.2046401    0.8220100 
H     0.9219622    1.6145903    1.6875384 
H     2.2185870    3.5636343   -0.1382178 
H     1.5696902    4.0270394    1.3212833 
N     2.7641172    0.7248548   -0.5243466 
C     3.3148443    1.1259712   -1.8383323 
H     3.3377416    0.2264914    0.1814937 
C     3.6909707    2.5909349   -1.8345233 
O     4.7292013    3.0142625   -1.0139127 
O     2.9297349    3.5442303   -2.4762976 
H     2.6524472    3.0771696   -3.5236728 
C     2.3800364    0.6250767   -2.9615655 
H     4.3062061    0.6557282   -2.0124830 
C     2.8046973    1.1542639   -4.2958012 
H     1.3433805    0.9890116   -2.8130897 
H     2.3249920   -0.4822745   -2.9491510 
C     3.3956378    0.4728067   -5.2780362 
C     3.9404292   -0.7715259   -5.2685865 
C     4.4685090   -1.2611971   -6.4283697 
C     4.4323210   -0.5075806   -7.5683852 
C     3.8656353    0.7334559   -7.5470847 
C     3.3562317    1.1917840   -6.3786674 
H     3.9653562   -1.3550805   -4.3560579 
H     4.9165827   -2.2492282   -6.4396650 
H     4.8510927   -0.8955492   -8.4911617 
H     3.8162014    1.3467408   -8.4380157 
N     2.6913958    2.4275152   -6.1763687 
C     2.3397655    2.5375383   -4.7414381 
H     2.4427346    3.1301323   -6.9017248 
H     2.6276499    3.5952419   -4.9529419 
