48
 energy: -9.360928050846 gnorm: 0.000658957898 xtb: 6.6.0 (2ccbbd7)
C            5.24335736416883        5.73117877144783        3.18902089599584
C            5.15380585598049        4.73341291696621        2.24781927719046
C            4.09143360131845        6.28080517231901        3.75305746503848
C            2.85346679168202        5.79115295560702        3.33705443221624
C            2.77169009912044        4.79386945370521        2.39515336445278
C            3.91921827513894        4.25427160834492        1.83484713198500
H            6.04866667574466        4.31628089480909        1.81884028043913
H            1.96587305167011        6.21364239145930        3.77337322742912
H            1.80992742700536        4.42094383861657        2.08626128343148
H            6.20486019641925        6.09856551215062        3.50032616800322
C            3.82106499980345        3.15117234079321        0.83406867271263
C            3.52406791595996        1.78745128541111        1.47610818068871
H            4.74675569346186        3.10887868817984        0.25705203073089
H            2.94027375557654        3.42679468465280        0.04718331694286
C            2.66286720130470        0.90232884115939        0.59901626930194
O            4.14613498227712        7.28336029039673        4.70194095345134
H            5.07976810832675        7.52505446730749        4.88410117075475
O            1.66549926083408        0.41444430296717        1.09515345186984
N            4.72184819931195        1.09430254328377        1.93175080487480
H            2.91673966369626        1.97055675564220        2.37861348613325
H            5.25066962793292        0.72390570416529        1.15400760134065
H            5.32357984945862        1.72422772373600        2.44811338372359
N            2.97718418763903        0.68011929418818       -0.72270703031934
C            4.12736789877601        1.24096135402757       -1.43844107942469
H            2.31338970607306        0.17581007637961       -1.30597120623713
C            3.86266081395887        2.67416283997193       -1.85193698938383
O            4.47679091755325        3.15909078001108       -2.77591263977441
O            2.89483850115720        3.42959252715888       -1.07546424322196
H            2.17074414927412        2.84871892647494       -0.52031817143109
C            4.50888473628973        0.34301735154807       -2.62748232409322
H            4.97848855243215        1.23911015722932       -0.74833774037480
C            5.95415536245582        0.41673691665508       -2.99776097588921
H            3.89145090226783        0.60874299565847       -3.49083393680795
H            4.26032404916606       -0.69401021746382       -2.38173525463823
C            6.88951526695420       -0.66121726019681       -3.02387509654616
C            6.78153327183723       -2.03188191774870       -2.73057723815527
C            7.89373370198259       -2.81844754147180       -2.85111307355694
C            9.12460108521941       -2.28026940101398       -3.26034329606784
C            9.25392630881717       -0.95012440058697       -3.55236715504924
C            8.12749607705211       -0.12632460755636       -3.43394813512064
H            5.83866336084921       -2.44255272365092       -2.41652346689243
H            7.82709020058497       -3.87050813820426       -2.62836378692453
H            9.98107166566995       -2.92854038291656       -3.34497119471945
H           10.19242579572694       -0.52914461302690       -3.86552674930724
N            7.94784779431368        1.22976381508096       -3.64389127862545
C            6.63906596124520        1.54204111817479       -3.37763724622011
H            8.67539817892355        1.87700566318675       -3.95278640210654
H            6.20656686377488        2.52685076489853       -3.43384094719838
