48
Energy =
C    -3.0922982    1.4808714    0.9688687 
C    -1.7748355    1.4753732    0.6430174 
C    -3.9772288    0.7388481    0.2505989 
C    -3.5362902   -0.0055000   -0.7888862 
C    -2.2200182   -0.0150357   -1.1187926 
C    -1.3311260    0.7299803   -0.4064739 
H    -1.0781006    2.0683545    1.2300836 
H    -4.2512709   -0.5949517   -1.3520825 
H    -1.8833098   -0.6224916   -1.9550178 
H    -3.4354668    2.0786747    1.8063101 
C     0.1383313    0.7050606   -0.7631339 
C     0.8457382   -0.5583272   -0.2189777 
H     0.6480932    1.6186945   -0.3841750 
H     0.2364279    0.7367501   -1.8722427 
C     2.2317233   -0.7049265   -0.8121962 
O    -5.3413176    0.7220888    0.5596178 
H    -5.5906318    1.3035660    1.3522191 
O     2.5138479   -1.7750301   -1.6534268 
N     0.9054849   -0.5337564    1.2522435 
H     0.2902492   -1.4678225   -0.5505283 
H     1.3025526    0.3793848    1.5804860 
H    -0.0619660   -0.6115731    1.6443155 
N     3.2614244    0.2500999   -0.5260879 
C     4.4478278   -0.2487526    0.1865958 
H     3.1563834    1.2393948   -0.8425037 
C     4.6016273    0.4680297    1.5227635 
O     5.3533375    1.6367145    1.5967925 
O     3.9747598    0.0025060    2.6786791 
H     3.3829961   -0.7956927    2.4893067 
C     5.6942144   -0.0619608   -0.7022193 
H     4.3483326   -1.3359359    0.4159345 
C     5.5881522   -0.8479548   -1.9920491 
H     6.5973858   -0.4008027   -0.1479138 
H     5.8449594    1.0186891   -0.9159393 
C     5.1693616   -0.3963792   -3.1862014 
C     4.7588848    0.8448814   -3.5573372 
C     4.3714444    1.0402372   -4.8503947 
C     4.3973226    0.0052102   -5.7433381 
C     4.8101004   -1.2323134   -5.3484516 
C     5.1906820   -1.4007533   -4.0649076 
H     4.7251932    1.6681617   -2.8519412 
H     4.0346485    2.0228346   -5.1717797 
H     4.0821226    0.1675016   -6.7709158 
H     4.8295962   -2.0660604   -6.0418546 
N     5.6412827   -2.6021633   -3.4559368 
C     5.8626787   -2.1593726   -2.1099983 
H     5.7888815   -3.5447426   -3.8837908 
H     6.1738190   -2.8052811   -1.2920241 
