48
Energy =
C     0.5349763   -1.5210736   -4.9597395 
C    -0.0761909   -1.1151695   -3.8172842 
C     0.6296963   -0.6773713   -6.0223257 
C     0.1026539    0.5645796   -5.9367645 
C    -0.5013491    0.9781137   -4.7952818 
C    -0.5901687    0.1426664   -3.7243206 
H    -0.1323102   -1.7957310   -2.9716021 
H     0.1750614    1.2293470   -6.7895841 
H    -0.9068286    1.9834993   -4.7427419 
H     0.9524755   -2.5199283   -5.0185649 
C    -1.2359247    0.6126603   -2.4368685 
C    -0.3137486    1.4821689   -1.5481701 
H    -1.5849816   -0.2620369   -1.8437377 
H    -2.1539579    1.1885924   -2.6839660 
C     0.9098900    0.7277298   -1.0410820 
O     1.2651604   -1.0605725   -7.2091068 
H     1.6128165   -2.0124011   -7.1941093 
O     0.9920395    0.4571175    0.1672574 
N     0.0582124    2.7210269   -2.2491032 
H    -0.9008170    1.7472145   -0.6352218 
H    -0.8112515    3.2734037   -2.4324159 
H     0.6333961    3.3026708   -1.5945653 
N     2.0572480    0.5049421   -1.8850483 
C     3.3588538    0.4805524   -1.1948096 
H     1.9512475    0.3956299   -2.9164513 
C     3.1522461    0.6048076    0.3135440 
O     4.2177920    0.9167068    1.1527019 
O     2.0306711    0.3912779    0.7956752 
H     1.4961575   -0.3694343    0.4278793 
C     4.2551270    1.6028688   -1.7566154 
H     3.8420286   -0.5068210   -1.3583819 
C     4.6073798    1.3535808   -3.2073123 
H     5.1977671    1.6594322   -1.1668333 
H     3.7478451    2.5836415   -1.6321494 
C     3.9732062    1.8300480   -4.2916096 
C     2.9097470    2.6689014   -4.3817605 
C     2.4391156    2.9899222   -5.6206584 
C     3.0249879    2.4646533   -6.7389150 
C     4.0874852    1.6186202   -6.6246233 
C     4.5415298    1.3251499   -5.3881140 
H     2.4280190    3.0665333   -3.4949198 
H     1.5822821    3.6522045   -5.7183397 
H     2.6334668    2.7094704   -7.7233839 
H     4.5530607    1.1817326   -7.5016806 
N     5.6177694    0.4608183   -5.0515136 
C     5.5880735    0.5310304   -3.6192276 
H     6.2562507   -0.0754896   -5.6836017 
H     6.2499521   -0.0266580   -2.9590233 
