48
Energy =
C    -2.0939598   -3.1694926   -5.9015775 
C    -1.8137250   -2.2062880   -4.9871965 
C    -1.7398519   -4.4611573   -5.6645257 
C    -1.1061669   -4.7805163   -4.5134956 
C    -0.8239798   -3.8225648   -3.5960618 
C    -1.1794389   -2.5279407   -3.8258642 
H    -2.0955125   -1.1767303   -5.1928162 
H    -0.8247820   -5.8127086   -4.3367410 
H    -0.3048765   -4.0953859   -2.6801773 
H    -2.5996699   -2.9038161   -6.8238445 
C    -0.8495879   -1.4542556   -2.8082882 
C     0.5498831   -0.7734664   -2.9686292 
H    -0.9561133   -1.8967264   -1.7907735 
H    -1.6362302   -0.6682958   -2.8436195 
C     1.3423199   -0.8269272   -1.6689812 
O    -2.0127936   -5.4767604   -6.5858177 
H    -2.4894991   -5.1580876   -7.4224469 
O     1.6688245   -2.0656884   -1.1227423 
N     1.3445215   -1.3143207   -4.0877805 
H     0.3783359    0.3085311   -3.1715526 
H     1.5040793   -2.3416481   -3.9505570 
H     0.8321003   -1.1832026   -4.9918543 
N     1.3961786    0.3347258   -0.8246693 
C     2.5511349    1.2586970   -1.0380829 
H     1.4264800   -0.0260677    0.1587651 
C     2.0899242    2.7102699   -1.1617100 
O     3.0105416    3.7168255   -0.8987276 
O     0.8202602    3.0744176   -1.6107586 
H     0.2047598    2.2815433   -1.6867479 
C     3.5015600    0.9001076   -2.2269560 
H     3.1644546    1.2676447   -0.1063483 
C     4.5285785   -0.1484868   -1.8512590 
H     4.0683112    1.8056457   -2.5435542 
H     2.9408453    0.6016678   -3.1385751 
C     5.6033000    0.0341408   -1.0656997 
C     6.0353998    1.1531057   -0.4279107 
C     7.1759829    1.0754241    0.3158385 
C     7.8621213   -0.1041732    0.4072907 
C     7.4122901   -1.2130738   -0.2461694 
C     6.2807426   -1.1111068   -0.9744043 
H     5.4950994    2.0935391   -0.5014954 
H     7.5411881    1.9570848    0.8377961 
H     8.7708635   -0.1580076    1.0020975 
H     7.9456032   -2.1560777   -0.1869009 
N     5.6530430   -2.1340771   -1.7328970 
C     4.5273943   -1.4264303   -2.2709508 
H     5.9384122   -3.1307343   -1.8736518 
H     3.7805014   -1.8723291   -2.9234799 
