48
Energy =
C    -1.7490991    0.6775082   -7.1023218 
C    -1.1245349    0.7445502   -5.8991531 
C    -1.5390969   -0.3860863   -7.9231837 
C    -0.7044286   -1.3762776   -7.5336137 
C    -0.0775538   -1.3148178   -6.3315718 
C    -0.2867872   -0.2536908   -5.5047912 
H    -1.3004660    1.6017048   -5.2541622 
H    -0.5438898   -2.2181658   -8.1981904 
H     0.5940798   -2.1180943   -6.0400028 
H    -2.4160252    1.4766848   -7.4071184 
C     0.4215330   -0.1698494   -4.1706595 
C     1.6588544    0.7573491   -4.2193298 
H     0.7273635   -1.1816630   -3.8201281 
H    -0.2967648    0.2003789   -3.4046379 
C     2.1820007    1.0346668   -2.8185446 
O    -2.1654846   -0.4852068   -9.1698067 
H    -2.7779345    0.2932307   -9.3875106 
O     2.2374451    0.0133601   -1.8753185 
N     2.7134224    0.1742406   -5.0675573 
H     1.3573646    1.7455826   -4.6383120 
H     2.9273290   -0.8020639   -4.7488516 
H     2.3801460    0.1149386   -6.0589158 
N     2.7064759    2.3259867   -2.4820365 
C     4.1161874    2.3814091   -2.0507819 
H     2.1157324    3.1731662   -2.6401128 
C     4.4597154    3.7411930   -1.4477689 
O     4.9480349    3.8111096   -0.1499625 
O     4.3489840    4.9216414   -2.1875988 
H     3.9450062    4.7625996   -3.0973647 
C     5.0399163    2.0310537   -3.2399467 
H     4.2725080    1.6398102   -1.2301863 
C     6.4885987    1.9581468   -2.8130568 
H     4.9134607    2.7693848   -4.0608300 
H     4.7459329    1.0520714   -3.6750722 
C     7.1062197    0.9050940   -2.2554382 
C     6.6256709   -0.3310760   -1.9634635 
C     7.4663157   -1.2298385   -1.3752251 
C     8.7574461   -0.8822641   -1.0869646 
C     9.2150580    0.3676948   -1.3829848 
C     8.3652878    1.2377807   -1.9679804 
H     5.5960558   -0.6048424   -2.1783281 
H     7.1050147   -2.2252022   -1.1274998 
H     9.4194013   -1.6024972   -0.6126482 
H    10.2325826    0.6633642   -1.1512329 
N     8.6304943    2.5851071   -2.3329323 
C     7.3575113    2.9835255   -2.8613720 
H     9.5182539    3.1315080   -2.2474288 
H     7.1150861    3.9922137   -3.1961077 
