48
Energy =
C    -1.7428268   -0.8982362   -5.7489948 
C    -0.7092416   -1.6063295   -5.2271931 
C    -1.6574054    0.4543679   -5.8621901 
C    -0.5365536    1.0893606   -5.4513197 
C     0.5006682    0.3863490   -4.9321826 
C     0.4203839   -0.9682705   -4.8121098 
H    -0.7935968   -2.6861677   -5.1432480 
H    -0.4799301    2.1685871   -5.5392405 
H     1.3897842    0.9184419   -4.6026165 
H    -2.6377548   -1.4165247   -6.0754868 
C     1.5760322   -1.7575102   -4.2281119 
C     1.5090299   -1.9371972   -2.6885113 
H     2.5308973   -1.2590504   -4.5031580 
H     1.6210449   -2.7591035   -4.7091276 
C     1.6122969   -0.6126890   -1.9315562 
O    -2.7040070    1.2119827   -6.3990714 
H    -3.5129697    0.6633684   -6.6677872 
O     0.5450020    0.2776682   -1.9466607 
N     0.3102788   -2.6941891   -2.2912125 
H     2.3913531   -2.5420404   -2.3901921 
H    -0.5447312   -2.1047996   -2.4446899 
H     0.2124661   -3.5527176   -2.8812043 
N     2.6969427   -0.3373503   -1.0249848 
C     3.9595049    0.0886187   -1.6814228 
H     2.8198474   -1.1558853   -0.3863359 
C     3.7423821    1.0996586   -2.8167217 
O     4.1892508    0.8189655   -4.1040573 
O     3.0869369    2.3065944   -2.5964918 
H     2.6430360    2.3155940   -1.6876537 
C     4.8191619   -1.1351618   -2.1017169 
H     4.5337528    0.6582192   -0.9166061 
C     6.2812940   -0.7658712   -2.2458511 
H     4.4506753   -1.5570242   -3.0613087 
H     4.7362856   -1.9486503   -1.3494737 
C     7.1806427   -0.6653503   -1.2544782 
C     7.0328268   -0.8787346    0.0784481 
C     8.1156840   -0.6967164    0.8874444 
C     9.3150713   -0.3061052    0.3589306 
C     9.4386260   -0.0941656   -0.9822441 
C     8.3535523   -0.2833222   -1.7619737 
H     6.0796800   -1.1833772    0.5010503 
H     8.0240386   -0.8604264    1.9586583 
H    10.1728280   -0.1606106    1.0110164 
H    10.3813133    0.2212539   -1.4166467 
N     8.2645235   -0.1042188   -3.1681184 
C     6.8860578   -0.4301714   -3.4001242 
H     9.0063594    0.1816851   -3.8481363 
H     6.3928631   -0.3790473   -4.3710349 
