48
Energy =
C     1.3665618   -2.8383033   -2.9728996 
C     0.8211115   -2.3032178   -1.8522963 
C     0.8499941   -2.5420512   -4.1942985 
C    -0.2183473   -1.7192175   -4.2854859 
C    -0.7735262   -1.1865904   -3.1685281 
C    -0.2525166   -1.4683144   -1.9412721 
H     1.2535006   -2.5455289   -0.8834120 
H    -0.6267773   -1.4948548   -5.2643380 
H    -1.6389554   -0.5379719   -3.2677439 
H     2.2161895   -3.5046901   -2.8894104 
C    -0.8613681   -0.8700642   -0.6853993 
C    -0.1466172    0.4141036   -0.1890714 
H    -0.8260656   -1.6317608    0.1266211 
H    -1.9393536   -0.6498896   -0.8455876 
C     1.3312380    0.1875471    0.0646793 
O     1.3955052   -3.0707833   -5.3687415 
H     2.1895410   -3.6811905   -5.2122420 
O     1.7170805   -0.6677492    1.0929387 
N    -0.3786351    1.5625118   -1.0930879 
H    -0.5544440    0.6494864    0.8232265 
H    -0.8750038    1.2903042   -1.9709333 
H    -0.9859967    2.2709125   -0.6163599 
N     2.3142253    0.5895645   -0.8951150 
C     3.5255406    1.2406224   -0.3646704 
H     2.1311682    0.4229703   -1.9100168 
C     3.4265203    2.7645849   -0.3408501 
O     4.3339980    3.4669942    0.4417683 
O     2.5336219    3.4910065   -1.1292690 
H     1.8599986    2.8960089   -1.5867183 
C     4.7731645    0.7826996   -1.1592302 
H     3.6681366    0.9700602    0.7041912 
C     4.7498816   -0.6719783   -1.6018515 
H     5.6864903    0.9607572   -0.5487961 
H     4.8754626    1.4286030   -2.0615012 
C     4.6550526   -1.7772795   -0.8374661 
C     4.5084264   -1.9098510    0.5060799 
C     4.4209117   -3.1656564    1.0325421 
C     4.4913083   -4.2616017    0.2196079 
C     4.6461567   -4.1086136   -1.1248021 
C     4.7237683   -2.8564816   -1.6219386 
H     4.4342700   -1.0495858    1.1581008 
H     4.2824299   -3.2943391    2.1042137 
H     4.4179574   -5.2592273    0.6462100 
H     4.7015072   -4.9679319   -1.7847742 
N     4.8728036   -2.4896496   -2.9845182 
C     4.8771722   -1.0614172   -2.8843020 
H     4.9534325   -3.0955436   -3.8333438 
H     4.9845487   -0.3907594   -3.7345883 
