48
Energy =
C     0.6116399    2.5858216   -4.5724794 
C     0.2956619    1.7915595   -3.5188815 
C     1.2732059    3.7565986   -4.3711873 
C     1.6152123    4.1244582   -3.1154230 
C     1.2994914    3.3349271   -2.0579093 
C     0.6310084    2.1659503   -2.2542213 
H    -0.2263145    0.8544353   -3.6942972 
H     2.1493970    5.0571955   -2.9707872 
H     1.5949975    3.6387331   -1.0547468 
H     0.3364977    2.2811886   -5.5763313 
C     0.3159901    1.2636683   -1.0826156 
C     1.4320382    0.2197107   -0.8644460 
H    -0.6551507    0.7511805   -1.2592138 
H     0.1825815    1.8663843   -0.1543051 
C     2.7504379    0.8794857   -0.4899712 
O     1.6171578    4.5955896   -5.4359149 
H     1.3194341    4.2552020   -6.3437028 
O     2.8710101    1.5739160    0.7092894 
N     1.0203234   -0.7453140    0.1659347 
H     1.6029346   -0.3318142   -1.8157539 
H     0.8459070   -0.2359674    1.0665710 
H     0.1242574   -1.2058520   -0.1161424 
N     3.8219028    0.9596586   -1.4357076 
C     5.0936132    0.3301046   -1.0418755 
H     3.6515356    1.3822358   -2.3754211 
C     6.2252091    1.3555971   -1.0454106 
O     7.3495259    1.1537727   -1.8391929 
O     6.1742441    2.4919989   -0.2407105 
H     5.3025111    2.5430271    0.2721484 
C     5.3881340   -0.8712404   -1.9710230 
H     5.0444896   -0.0309589    0.0100466 
C     4.2173219   -1.8225456   -2.0895161 
H     6.2779406   -1.4252623   -1.5985083 
H     5.6619660   -0.4909230   -2.9822552 
C     3.7327020   -2.6372094   -1.1383465 
C     4.1618956   -2.8469780    0.1321708 
C     3.4731111   -3.7302670    0.9122355 
C     2.3809459   -4.3853010    0.4137020 
C     1.9713193   -4.1619973   -0.8671590 
C     2.6681421   -3.2833902   -1.6174521 
H     5.0296501   -2.3282084    0.5262521 
H     3.7901344   -3.9125381    1.9370828 
H     1.8345116   -5.0853332    1.0413023 
H     1.1062019   -4.6718231   -1.2775652 
N     2.4060310   -2.9059451   -2.9615297 
C     3.4544410   -1.9556790   -3.1893591 
H     1.6465258   -3.2295559   -3.6039514 
H     3.5958593   -1.4087292   -4.1192738 
