48
Energy =
C     5.2742745   -0.3278963    2.2161583 
C     4.0074227    0.1575805    2.1891789 
C     5.5488447   -1.5517251    1.6906495 
C     4.5501744   -2.2867272    1.1513663 
C     3.2810277   -1.8078893    1.1258927 
C     3.0014621   -0.5818598    1.6479635 
H     3.8085676    1.1487902    2.5894346 
H     4.7814253   -3.2600434    0.7323947 
H     2.4930392   -2.4052720    0.6717087 
H     6.0698569    0.2758956    2.6394257 
C     1.5975540   -0.0215883    1.5772808 
C     1.4009790    0.8669255    0.3289148 
H     1.3932625    0.5734359    2.4943274 
H     0.8503810   -0.8473591    1.5691587 
C     1.6030724    0.0797102   -0.9622805 
O     6.8472326   -2.0707710    1.6785806 
H     7.5358778   -1.4589865    2.1039329 
O     0.9713412   -1.1507582   -1.1175886 
N     0.0629307    1.4767687    0.3574356 
H     2.1583419    1.6832353    0.3485706 
H    -0.6702858    0.7266212    0.3507659 
H    -0.0578869    2.0376368    1.2332528 
N     2.2299902    0.6716174   -2.1113857 
C     3.7032290    0.5277296   -2.0799603 
H     1.9220329    1.6708407   -2.1775967 
C     4.3973254    1.5967971   -1.2288671 
O     3.9292680    2.9051903   -1.2423429 
O     5.5536228    1.3157196   -0.5022821 
H     5.8509823    0.3579535   -0.6192972 
C     4.1980277    0.5734075   -3.5362400 
H     3.9691201   -0.4730209   -1.6630420 
C     5.6612090    0.2059136   -3.6520202 
H     4.0036267    1.5771669   -3.9746068 
H     3.5981819   -0.1453400   -4.1392274 
C     6.7122391    1.0420590   -3.6333029 
C     6.7494951    2.3966084   -3.5407412 
C     7.9664248    3.0120107   -3.5275013 
C     9.1150810    2.2740796   -3.6051114 
C     9.0537581    0.9150952   -3.6936164 
C     7.8380436    0.3292837   -3.7060434 
H     5.8408770    2.9871094   -3.4638861 
H     8.0220627    4.0951455   -3.4457709 
H    10.0810903    2.7727498   -3.5886125 
H     9.9555297    0.3145125   -3.7474877 
N     7.5567138   -1.0618280   -3.7717523 
C     6.1241154   -1.0543496   -3.7256061 
H     8.2172858   -1.8703038   -3.8385292 
H     5.5029828   -1.9477583   -3.7288415 
