48
 energy: -8.968108830058 gnorm: 0.000902444708 xtb: 6.6.0 (2ccbbd7)
C           -4.01820116537096       -1.82424933323108       -1.10773799999643
C           -2.74464843021697       -1.69046598413317       -1.60896961733787
C           -4.25818800756096       -1.71162051915787        0.26203116202187
C           -3.17557591047589       -1.45882078301418        1.10348309730201
C           -1.90551937156644       -1.32637286462555        0.59492001776417
C           -1.66981798604758       -1.44577529224287       -0.76648710492754
H           -2.57228686608728       -1.77769741610539       -2.66779402999351
H           -3.36006227892128       -1.36918650748959        2.15883706027580
H           -1.07854695798857       -1.12558634559614        1.25394996511569
H           -4.84366682845433       -2.01713823476435       -1.76870602941200
C           -0.28927507952350       -1.25861296543791       -1.31445624006881
C            0.11298679575025        0.20802108753629       -1.41032765240656
H           -0.21590296471301       -1.70938912589243       -2.30896531990772
H            0.43279604578024       -1.80035054210415       -0.69464363964575
C            1.53359583015123        0.37316139235091       -2.00225737857157
O           -5.52594268880094       -1.84105433817870        0.79752315965512
H           -6.17521152296745       -2.02192477677305        0.08332799802043
O            1.69152347746581       -0.42277580770715       -3.21123242690691
N           -0.78018858150346        0.99848198990964       -2.34441741331294
H            0.09040975581284        0.67098848482045       -0.41471399419079
H           -1.23766595376671        0.34690630407251       -3.00733816319169
H           -1.54172507250755        1.48399597933795       -1.82921591309140
N            2.66623004340487        0.25797346661803       -1.04715402461844
C            4.04168670372757        0.64791417360053       -1.43896107720027
H            2.42988571912401        0.84814438222211       -0.23988277271145
C            4.19731808422172        2.15271226459426       -1.29538049183102
O            3.26322809216972        2.76886003407193       -0.82826651981074
O            5.37366052672245        2.71198650607004       -1.67908357432079
H            6.01930313344494        2.03250823351870       -1.97159523270391
C            4.48904410732680        0.12123599672593       -2.81519223286322
H            4.69816326585177        0.19682027508011       -0.67789957554364
C            3.72107103141013        0.67089595699305       -3.96099904465727
H            4.36822095947024       -0.96718992837984       -2.82448880317441
H            5.55499925743702        0.30755794658755       -2.97489273653454
C            2.21762524752191        0.74181183234123       -3.91281328397937
C            1.52519101750787        1.67006759602437       -2.87333467660801
C            0.04980567680763        1.99682591846293       -3.17976383185058
C           -0.31930382637045        1.94666180797707       -4.63333367259764
C            0.50864253398199        1.50537059935201       -5.62144195482036
C            1.76410810261599        0.97848383594368       -5.32798976740113
H            2.14481328072072        2.49103945530022       -2.49313047148157
H           -0.11808928490941        3.23151612887702       -2.83744855390391
H           -1.29049219382295        2.32498060932480       -4.90227802946597
H            0.22304691506404        1.60620614879645       -6.65435409460380
N            2.92200876222573        0.91235934816137       -6.07558627481537
C            4.06314286601525        0.72925145555053       -5.26921469054375
H            2.97367739635730        1.17631388183135       -7.05931540957876
H            5.05879065401437        0.58581047797543       -5.65399899337792
