48
Energy =
C     2.5917672   -2.7166932   -2.1435249 
C     1.5505260   -2.0193632   -1.6243509 
C     2.6758838   -2.9197933   -3.4848789 
C     1.7211458   -2.4138770   -4.2989119 
C     0.6742951   -1.7195924   -3.7835857 
C     0.5807694   -1.5204593   -2.4407048 
H     1.4973815   -1.8596336   -0.5491850 
H     1.8009420   -2.5797369   -5.3674843 
H    -0.0872983   -1.3274418   -4.4520236 
H     3.3575343   -3.1095601   -1.4827955 
C    -0.5840946   -0.7465952   -1.8540907 
C    -0.3323431    0.7797776   -1.7643596 
H    -0.8001496   -1.1290351   -0.8308351 
H    -1.5066622   -0.9444814   -2.4418018 
C     0.9814936    1.1055639   -1.0695238 
O     3.7319633   -3.6433543   -4.0482903 
H     4.3310444   -4.0857160   -3.3600251 
O     1.1990486    0.6170087    0.2165747 
N    -0.4408450    1.4078560   -3.0936787 
H    -1.1136691    1.2225340   -1.1039387 
H     0.3418528    1.0767368   -3.7064796 
H    -1.3428329    1.1399000   -3.5515178 
N     2.0268172    1.8047669   -1.7689749 
C     3.3798776    1.5646322   -1.2185613 
H     1.7817471    2.8229068   -1.7359115 
C     3.6982915    2.4639828   -0.0173572 
O     4.0067329    3.8034591   -0.2286721 
O     3.7672522    1.9706266    1.2836256 
H     3.3284964    1.0657251    1.3648438 
C     4.3801970    1.7918279   -2.3707743 
H     3.4832189    0.5059234   -0.8835566 
C     5.7850116    1.3627034   -2.0042734 
H     4.3808888    2.8683414   -2.6583037 
H     4.0320706    1.2436739   -3.2726566 
C     6.3800443    0.1978845   -2.3091068 
C     5.9150048   -0.8609297   -3.0222712 
C     6.7418860   -1.9289967   -3.2098385 
C     8.0018355   -1.9299004   -2.6791104 
C     8.4450348   -0.8596873   -1.9607257 
C     7.6117508    0.1887164   -1.7950160 
H     4.9161206   -0.8685482   -3.4482963 
H     6.3995887   -2.7802071   -3.7934969 
H     8.6547330   -2.7851709   -2.8350848 
H     9.4428909   -0.8428381   -1.5354476 
N     7.8815229    1.3956316   -1.0967342 
C     6.6459629    2.1016470   -1.2804561 
H     8.7478897    1.6913206   -0.5903973 
H     6.4306911    3.0927321   -0.8770269 
