48
Energy =
C     3.9780029    2.9614796    1.5584607 
C     2.6539112    3.1956130    1.3764179 
C     4.4191358    1.7035303    1.8281581 
C     3.5291878    0.6895307    1.9235634 
C     2.2056010    0.9163419    1.7357704 
C     1.7588122    2.1734643    1.4633823 
H     2.3187164    4.2019703    1.1352803 
H     3.8910034   -0.3112529    2.1322324 
H     1.5105340    0.0805149    1.7830526 
H     4.6836477    3.7807199    1.4695924 
C     0.2944065    2.4167820    1.1724072 
C     0.0177521    2.4671409   -0.3473320 
H    -0.0177759    3.3768761    1.6390466 
H    -0.3317342    1.6220498    1.6382488 
C     0.4465300    1.1821322   -1.0453323 
O     5.7790794    1.4228412    1.9953257 
H     6.3800722    2.2376631    1.9250347 
O    -0.0419568   -0.0462799   -0.6119500 
N    -1.4067961    2.7434706   -0.5859668 
H     0.6130325    3.2977597   -0.7933858 
H    -1.9934947    1.9876071   -0.1563287 
H    -1.6736054    3.6506966   -0.1364231 
N     1.2329407    1.2288793   -2.2416449 
C     2.6622872    1.5673978   -2.1069342 
H     0.7734474    0.9958318   -3.1498152 
C     2.9566438    2.9276321   -2.7164122 
O     3.4355775    3.9414888   -1.8952240 
O     2.7747327    3.1906929   -4.0735180 
H     2.3876360    2.3958434   -4.5597519 
C     3.5245891    0.4499855   -2.7350759 
H     2.9529498    1.6754157   -1.0378398 
C     3.6978881   -0.7091154   -1.7774971 
H     4.5344848    0.8458784   -2.9915821 
H     3.0793166    0.0983077   -3.6909273 
C     2.8861637   -1.7680451   -1.6248877 
C     1.7515019   -2.1015568   -2.2906456 
C     1.0991684   -3.2435769   -1.9295964 
C     1.5866714   -4.0286197   -0.9218031 
C     2.7290435   -3.6752099   -0.2675683 
C     3.3551184   -2.5400005   -0.6422855 
H     1.3561786   -1.4758562   -3.0834286 
H     0.1816476   -3.5251959   -2.4402982 
H     1.0579244   -4.9349084   -0.6377151 
H     3.1273334   -4.2850778    0.5361136 
N     4.5434483   -1.9936392   -0.0879638 
C     4.6903899   -0.8041583   -0.8738555 
H     5.1437294   -2.3524899    0.6902935 
H     5.4835854   -0.0713769   -0.7336919 
