48
Energy =
C     2.1005998   -1.1502838    3.3623583 
C     1.6130252   -1.6254703    2.1883137 
C     2.0963702    0.1861209    3.6136330 
C     1.5995303    1.0380757    2.6886541 
C     1.1089761    0.5683142    1.5139830 
C     1.1178278   -0.7683083    1.2528901 
H     1.6241598   -2.6962861    2.0022333 
H     1.6001481    2.1016329    2.9006198 
H     0.7159602    1.2708334    0.7818903 
H     2.4943786   -1.8418938    4.0992384 
C     0.5854430   -1.2933211   -0.0662630 
C     1.6081800   -1.2288704   -1.2266249 
H    -0.3173737   -0.7057650   -0.3499630 
H     0.2350371   -2.3419134    0.0509607 
C     2.0937539    0.1938010   -1.5045903 
O     2.5967371    0.7083272    4.8108322 
H     2.9363202    0.0039951    5.4562307 
O     1.2211657    1.0672221   -2.1404644 
N     2.7029826   -2.2021074   -1.0332480 
H     1.0604066   -1.5055614   -2.1593908 
H     3.0696981   -2.1586253   -0.0538539 
H     2.3172063   -3.1694168   -1.1521934 
N     3.2982501    0.7343384   -0.9223260 
C     4.3277902    1.0472462   -1.9408123 
H     3.6745880    0.0565827   -0.2234046 
C     3.9370537    2.2527715   -2.8069925 
O     4.1131678    2.2134117   -4.1851443 
O     3.5058769    3.4469489   -2.2311108 
H     3.2671629    3.3144799   -1.2593442 
C     4.7053298   -0.2216207   -2.7601010 
H     5.2323089    1.3944595   -1.3934416 
C     6.0642529   -0.1028612   -3.4224426 
H     3.9107373   -0.4366347   -3.5062393 
H     4.7298017   -1.1097723   -2.0916965 
C     6.3334786   -0.0115285   -4.7379221 
C     5.4946056    0.0130975   -5.8070515 
C     6.0354128    0.1069586   -7.0555387 
C     7.3910607    0.1696625   -7.2186999 
C     8.2148900    0.1409908   -6.1336522 
C     7.6564901    0.0510805   -4.9082399 
H     4.4163369   -0.0223763   -5.6880482 
H     5.3827795    0.1398475   -7.9249059 
H     7.8132378    0.2476122   -8.2175708 
H     9.2926330    0.1912883   -6.2459676 
N     8.3348795    0.0002717   -3.6614796 
C     7.2320992   -0.1012302   -2.7532967 
H     9.3621450    0.0235632   -3.4656275 
H     7.3346711   -0.1748766   -1.6729641 
