48
Energy =
C    -0.1079071    6.4680216   -0.8424509 
C     0.2493666    5.3882243   -1.5852571 
C    -1.3197916    6.5028674   -0.2281852 
C    -2.1665627    5.4571025   -0.3611917 
C    -1.8132973    4.3750256   -1.1001786 
C    -0.5985302    4.3304920   -1.7143552 
H     1.2254372    5.3640794   -2.0716490 
H    -3.1314435    5.4976366    0.1323800 
H    -2.5094871    3.5464009   -1.1950235 
H     0.5775180    7.3023059   -0.7378579 
C    -0.2034184    3.1216012   -2.5434864 
C     0.5273307    2.0007037   -1.7531139 
H     0.4506152    3.4409678   -3.3857219 
H    -1.1102133    2.6886401   -3.0189781 
C     1.9648727    2.3299446   -1.3736281 
O    -1.7191283    7.5993700    0.5423710 
H    -1.0267848    8.3378038    0.6028952 
O     2.4248922    3.4716290   -1.5117429 
N    -0.2476134    1.5688617   -0.5796577 
H     0.6175851    1.1325348   -2.4441358 
H    -0.2583919    2.3404461    0.1287099 
H    -1.2360278    1.3755560   -0.8604192 
N     2.8756514    1.2721681   -1.0434579 
C     4.1976607    1.4031926   -1.6784038 
H     2.5840739    0.4829368   -0.4244725 
C     4.4289476    2.8642608   -2.0912544 
O     5.5919785    3.2442972   -2.7536970 
O     3.5748541    3.7240899   -1.8153986 
H     3.1816934    3.7182164   -0.8976342 
C     4.2463257    0.4215131   -2.8672442 
H     4.9830604    1.1500380   -0.9348135 
C     5.6412831    0.2592711   -3.4320127 
H     3.5291938    0.7502422   -3.6494872 
H     3.8917742   -0.5757649   -2.5256189 
C     6.1360489    0.8043961   -4.5564234 
C     5.5481347    1.6299501   -5.4612896 
C     6.2817975    2.0447166   -6.5335903 
C     7.5767789    1.6333726   -6.6857294 
C     8.1475760    0.8069384   -5.7642692 
C     7.4021839    0.4110532   -4.7110383 
H     4.5265679    1.9743238   -5.3361420 
H     5.8363752    2.7134112   -7.2658657 
H     8.1557082    1.9724228   -7.5408858 
H     9.1751870    0.4758092   -5.8674948 
N     7.8056936   -0.4407340   -3.6477131 
C     6.6072838   -0.4834920   -2.8627248 
H     8.7251695   -0.9125797   -3.4889951 
H     6.4988762   -1.0432819   -1.9370149 
