48
 energy: -9.291643565547 gnorm: 0.000536863608 xtb: 6.6.0 (2ccbbd7)
C           -2.70597139188927        0.18063090916521       -4.49510974500672
C           -1.46690542348324       -0.41255827706222       -4.52616386229216
C           -3.75191567399654       -0.40341272833006       -3.78022775331381
C           -3.50231753518601       -1.59673830051738       -3.10324569971153
C           -2.25883448366903       -2.18121024247950       -3.13982218302890
C           -1.22111814652720       -1.60132081354349       -3.85591951344408
H           -0.65702483851858        0.05487351475358       -5.05840816155358
H           -4.30778970542623       -2.04598646333314       -2.55033116734847
H           -2.08149320122010       -3.09957215673542       -2.60704592793774
H           -2.87851387297458        1.10470826649305       -5.01713508468660
C            0.14111462391495       -2.22829487238898       -3.87035540167242
C            1.21431874812836       -1.42139915855724       -3.10594845952046
H            0.46446849058752       -2.35788696100045       -4.90853216769952
H            0.06657172333689       -3.23746748688794       -3.45132627460998
C            1.87137834795014       -0.37373200089347       -3.98453306221713
O           -5.01009696136121        0.16467963015044       -3.72320249220455
H           -5.02824292641434        0.99565116424690       -4.24490374026859
O            1.31957973986002       -0.01841924021457       -5.00668645072963
N            0.66495683197394       -0.78926357073159       -1.91266067032817
H            2.01092816875724       -2.11501852033191       -2.79300731484992
H           -0.07129574810849       -0.16111568124369       -2.20592829716508
H            0.23074097784490       -1.48670413271767       -1.32356878026207
N            3.08165398093793        0.16998241023967       -3.60558786643246
C            3.75077592157824       -0.05870814738250       -2.32175311042873
H            3.44801976143246        0.96356151164161       -4.12582232604822
C            3.64860418205653        1.19799518984001       -1.47515492895827
O            4.62238396548990        1.90382706514968       -1.32939487258443
O            2.42326001702435        1.42389458260020       -0.94648765706185
H            1.80259378686323        0.70947969472615       -1.24990525272822
C            5.19709055131664       -0.50755188291301       -2.52841589246283
H            3.22352311392627       -0.85833686857646       -1.78769934676252
C            5.83758992280224       -1.00132021225300       -1.27509079811293
H            5.77176037401755        0.33595323240225       -2.92291846157521
H            5.23083251359764       -1.28773633738692       -3.29456823690605
C            6.25607087478158       -2.33308035074001       -0.98067990265088
C            6.22634191122373       -3.53159334325061       -1.71415050119953
C            6.71286196781375       -4.66885740680142       -1.13114276787677
C            7.23293626358717       -4.65242668801872        0.17337151902242
C            7.26902907165084       -3.49878228664511        0.90738584823847
C            6.77561833591525       -2.32256557690310        0.32937224271860
H            5.82609222248497       -3.54137824837623       -2.71220738103194
H            6.69820745297268       -5.59538451968029       -1.68061276823576
H            7.60940559351748       -5.56640172011757        0.60205099660109
H            7.66394333250644       -3.47703634814776        1.90720940629693
N            6.67265645745032       -1.02852124666661        0.81013022653817
C            6.10066376199945       -0.24638562999856       -0.16091625526953
H            6.96097216291241       -0.72433441849012        1.74178141450298
H            5.85472304189319        0.79907024365984       -0.06499174580699
