48
Energy =
C    -2.8055039   -1.0547020    1.9191191 
C    -1.4706269   -0.8411082    1.7979202 
C    -3.5027457   -1.6203803    0.8976226 
C    -2.8584864   -1.9676007   -0.2395869 
C    -1.5241829   -1.7567412   -0.3661200 
C    -0.8209472   -1.1958986    0.6556036 
H    -0.9262135   -0.3843524    2.6210946 
H    -3.4265626   -2.4143935   -1.0479648 
H    -1.0268166   -2.0352141   -1.2907390 
H    -3.3140278   -0.7704990    2.8341001 
C     0.6619445   -0.9398512    0.5132730 
C     0.9677869    0.5274772    0.1347138 
H     1.1051760   -1.6243703   -0.2406323 
H     1.1658293   -1.1895103    1.4757181 
C     2.4640018    0.7891756    0.1791279 
O    -4.8787513   -1.8534345    0.9889916 
H    -5.2875992   -1.5662622    1.8716678 
O     3.1128292    0.7540024    1.4089467 
N     0.3798913    0.8674778   -1.1748689 
H     0.5459158    1.2043018    0.9159904 
H     0.5548779    0.0969780   -1.8601643 
H    -0.6602444    0.9511828   -1.0765617 
N     3.2075053    1.1660985   -0.9881584 
C     4.5605065    0.5999557   -1.1419194 
H     2.7398876    1.7332150   -1.7311081 
C     5.5961195    1.7169421   -1.1832351 
O     6.2556282    2.0185986   -2.3701569 
O     5.8980509    2.4613383   -0.0442616 
H     5.2945675    2.2186018    0.7315767 
C     4.6110764   -0.2912132   -2.4029758 
H     4.8478348   -0.0163004   -0.2574136 
C     3.6679515   -1.4713721   -2.3072316 
H     5.6453654   -0.6812333   -2.5385618 
H     4.3993689    0.3255067   -3.3022815 
C     2.5572771   -1.6907707   -3.0321973 
C     1.9831130   -0.9382878   -4.0077498 
C     0.8316889   -1.3901417   -4.5826167 
C     0.2779738   -2.5743860   -4.1831997 
C     0.8726028   -3.3154853   -3.2064257 
C     2.0103667   -2.8479797   -2.6520277 
H     2.4108247    0.0063713   -4.3271085 
H     0.3517805   -0.8047276   -5.3639367 
H    -0.6388532   -2.9280439   -4.6490498 
H     0.4469034   -4.2580630   -2.8785603 
N     2.7708103   -3.4564610   -1.6185787 
C     3.8265999   -2.5010372   -1.4562560 
H     2.6014061   -4.3540405   -1.1082748 
H     4.6444011   -2.6044246   -0.7461067 
