48
Energy =
C     4.4291095   -3.4331854   -2.8025956 
C     3.6666811   -2.8249455   -3.7452280 
C     3.8413650   -4.0789561   -1.7614099 
C     2.4927497   -4.1151557   -1.6734094 
C     1.7247332   -3.5064248   -2.6123700 
C     2.3071006   -2.8392597   -3.6479662 
H     4.1569091   -2.3210931   -4.5739024 
H     2.0361801   -4.6399573   -0.8407903 
H     0.6435952   -3.5616682   -2.5245967 
H     5.5103355   -3.4029733   -2.8852592 
C     1.4543687   -2.1619253   -4.7050323 
C     0.5289853   -1.0596053   -4.1312612 
H     0.8384127   -2.9459444   -5.1979613 
H     2.0971443   -1.7154692   -5.4996276 
C     1.3084131    0.0807889   -3.4958760 
O     4.5973658   -4.7182397   -0.7739647 
H     5.6005253   -4.6342061   -0.8995976 
O     1.0745989    0.3909929   -2.1599717 
N    -0.3583690   -0.5622518   -5.1981077 
H    -0.1026671   -1.4779719   -3.3122612 
H     0.2093741   -0.1898855   -6.0005734 
H    -0.9459904   -1.3461888   -5.5672507 
N     1.9434174    1.0499161   -4.3418984 
C     3.1674634    1.6304676   -3.7347672 
H     1.2375641    1.8168067   -4.4367091 
C     3.7301733    2.7321755   -4.6294500 
O     4.0372945    3.9710147   -4.0712106 
O     3.9544540    2.5288232   -5.9979707 
H     3.7145437    1.5925633   -6.3059558 
C     4.2352194    0.5398874   -3.4769931 
H     2.9119033    2.1150098   -2.7628746 
C     5.4700497    1.0985676   -2.8047544 
H     4.5036959    0.0355077   -4.4285314 
H     3.8170892   -0.2350412   -2.8014981 
C     6.6013738    1.5107814   -3.3987915 
C     6.9437842    1.5232353   -4.7127621 
C     8.1694487    2.0105386   -5.0589217 
C     9.0263302    2.4719238   -4.0981904 
C     8.6611822    2.4503609   -2.7848105 
C     7.4430002    1.9635754   -2.4674559 
H     6.2620161    1.1687904   -5.4806352 
H     8.4603720    2.0402189   -6.1061386 
H     9.9988908    2.8646768   -4.3836737 
H     9.3252595    2.8191972   -2.0107030 
N     6.8698517    1.8644573   -1.1709486 
C     5.5886469    1.3006614   -1.4806060 
H     7.2768064    2.1234930   -0.2430451 
H     4.8162023    1.0839539   -0.7452183 
