48
Energy =
C     2.5714723   -1.1714073    2.8978100 
C     1.6562497   -0.2507647    2.4978160 
C     3.3650099   -1.8154225    1.9991270 
C     3.2581815   -1.5408350    0.6832311 
C     2.3653441   -0.6062399    0.2527658 
C     1.5028353    0.0760676    1.1869717 
H     1.0332751    0.2257366    3.2503903 
H     3.8885447   -2.0677277   -0.0232520 
H     1.6857584    0.1394305   -0.3454432 
H     2.6615369   -1.4001648    3.9541436 
C     0.3165747    1.1607857    0.8652340 
C     0.2568824    1.6856481   -0.6760161 
H     0.4337278    2.0411123    1.5353495 
H    -0.6489339    0.6757618    1.1281324 
C     1.0405366    0.7428186   -1.7406254 
O     4.3043751   -2.7700186    2.4082300 
H     4.3238224   -2.9255973    3.4100505 
O     0.5905329    0.7084333   -3.0551889 
N    -1.1416581    1.8944687   -1.0688376 
H     0.7921531    2.6635200   -0.7303723 
H    -1.6458565    0.9764615   -1.0635794 
H    -1.6114541    2.5206647   -0.3735435 
N     2.2266934   -0.0931076   -1.3800748 
C     3.5456891    0.5364931   -1.8090654 
H     2.0678178   -1.0043992   -1.9205156 
C     3.6466041    2.0229651   -1.4303476 
O     3.3887231    3.0037252   -2.3820648 
O     3.9311965    2.4234123   -0.1244657 
H     4.0383076    1.6319212    0.4950848 
C     3.8179877    0.3016538   -3.3192266 
H     4.3852737    0.0542142   -1.2607417 
C     4.1326102   -1.1503226   -3.6210810 
H     4.6958584    0.9078372   -3.6385350 
H     2.9669154    0.6693987   -3.9302644 
C     3.3490638   -2.0472241   -4.2455523 
C     2.1107093   -1.9039452   -4.7857131 
C     1.5230141   -2.9920524   -5.3603642 
C     2.1724809   -4.1944693   -5.3881254 
C     3.4149189   -4.3163505   -4.8417325 
C     3.9762649   -3.2253058   -4.2795564 
H     1.5876743   -0.9541415   -4.7708388 
H     0.5318574   -2.9016182   -5.7987185 
H     1.6961151   -5.0568881   -5.8477312 
H     3.9427266   -5.2639883   -4.8546750 
N     5.2486363   -3.1434244   -3.6545418 
C     5.2712561   -1.7673909   -3.2569008 
H     5.9706038   -3.8887152   -3.5235501 
H     6.0936049   -1.2966841   -2.7223992 
