48
Energy =
C    -2.3798598    4.3368599   -0.5796888 
C    -1.0574402    4.1565477   -0.8315933 
C    -3.2358432    4.6259236   -1.5950903 
C    -2.7633120    4.7307952   -2.8572740 
C    -1.4436924    4.5483406   -3.1159117 
C    -0.5799582    4.2579580   -2.1032918 
H    -0.3864510    3.9078439   -0.0087064 
H    -3.4572083    4.9616365   -3.6582209 
H    -1.0886817    4.6370005   -4.1392288 
H    -2.7530201    4.2429311    0.4347549 
C     0.8957523    4.0569064   -2.3930921 
C     1.3228481    2.5736263   -2.6025404 
H     1.5028369    4.5214448   -1.5788606 
H     1.1780323    4.6347914   -3.3003210 
C     1.4489650    1.8001995   -1.2932865 
O    -4.6023742    4.8194216   -1.3695396 
H    -4.8806010    4.7094710   -0.4004531 
O     0.3516172    1.6500422   -0.4561333 
N     0.4454225    1.8825191   -3.5673346 
H     2.3563710    2.5883710   -3.0190689 
H    -0.4962801    1.7226043   -3.1291167 
H     0.3007408    2.4750733   -4.4179222 
N     2.6294362    1.0461505   -0.9848420 
C     3.9207505    1.7371045   -0.7602065 
H     2.5564249    0.0076512   -1.0606543 
C     3.7720892    3.2514708   -0.6126365 
O     3.9594679    4.0745556   -1.7164166 
O     3.2624925    3.8225097    0.5488105 
H     3.0495681    3.1213494    1.2447327 
C     4.9191716    1.3662426   -1.8815408 
H     4.3435080    1.3844388    0.2066546 
C     5.2344593   -0.1127713   -1.9053852 
H     5.8677706    1.9300792   -1.7281903 
H     4.5383363    1.6967014   -2.8698411 
C     4.6430306   -1.0555722   -2.6577273 
C     3.6476568   -0.9432884   -3.5757673 
C     3.2100447   -2.0747013   -4.1988592 
C     3.7661963   -3.2875275   -3.8992326 
C     4.7622080   -3.3766441   -2.9725377 
C     5.1786009   -2.2431095   -2.3699911 
H     3.1959875    0.0159410   -3.8092456 
H     2.4115805   -2.0119724   -4.9346381 
H     3.4102444   -4.1850784   -4.3987694 
H     5.2102720   -4.3314359   -2.7192682 
N     6.1824675   -2.1200292   -1.3723428 
C     6.1510687   -0.7087234   -1.1233082 
H     6.7796924   -2.8603343   -0.9377419 
H     6.7792801   -0.1982180   -0.3968575 
