48
Energy =
C    -4.0730781   -0.6722370    0.6040134 
C    -3.0900878   -0.7387144   -0.3289916 
C    -3.8144640   -1.0125818    1.8949121 
C    -2.5718123   -1.4170201    2.2432989 
C    -1.5845702   -1.4847959    1.3146045 
C    -1.8393388   -1.1486673    0.0206028 
H    -3.3118658   -0.4582398   -1.3553855 
H    -2.3784087   -1.6850320    3.2761405 
H    -0.5918384   -1.8107176    1.6139884 
H    -5.0657686   -0.3447960    0.3149835 
C    -0.7341619   -1.2085681   -1.0104198 
C     0.2186186    0.0113933   -0.9297076 
H    -1.1518171   -1.2900427   -2.0389056 
H    -0.1530256   -2.1456941   -0.8526138 
C     1.4444154   -0.1486422   -1.8252438 
O    -4.8045313   -0.9544148    2.8812868 
H    -5.7078614   -0.6442457    2.5402237 
O     1.5883828   -1.3202117   -2.5604903 
N    -0.4999058    1.2533435   -1.2575007 
H     0.6152855    0.0860241    0.1080455 
H    -0.9663062    1.1645307   -2.1916089 
H    -1.2420138    1.4390637   -0.5431454 
N     2.4173885    0.9253139   -1.8687057 
C     3.6566639    0.9027032   -2.7010018 
H     2.6396843    1.2117361   -0.8894302 
C     3.6907741    2.1849215   -3.5341113 
O     3.2900493    2.1637354   -4.8668759 
O     4.1011481    3.4001586   -2.9819574 
H     4.2707226    3.3260640   -1.9900261 
C     3.8791961   -0.3310184   -3.6161415 
H     4.5531692    0.9823840   -2.0510259 
C     4.3224442   -1.6699782   -3.0188593 
H     4.6808862   -0.0630462   -4.3414495 
H     2.9749151   -0.4815299   -4.2483751 
C     4.5519128   -2.0823521   -1.7434290 
C     4.4614278   -1.4354982   -0.5462562 
C     4.7562703   -2.1160438    0.5977733 
C     5.1356304   -3.4242907    0.5453504 
C     5.2224891   -4.0619982   -0.6516424 
C     4.9266967   -3.3704197   -1.7717473 
H     4.1633905   -0.4102578   -0.4555911 
H     4.6881974   -1.6131611    1.5596084 
H     5.3685544   -3.9597266    1.4624686 
H     5.5213435   -5.1031522   -0.7112219 
N     4.9623599   -3.8725146   -3.0951842 
C     4.5567235   -2.7189079   -3.8324337 
H     5.2214217   -4.8262426   -3.4377356 
H     4.4460334   -2.7005883   -4.9147660 
