48
Energy =
C     0.1320892    1.5854692    2.9661935 
C     0.5889174    0.6304451    2.1168300 
C     0.4365397    1.5251300    4.2899235 
C     1.1976148    0.5103988    4.7553892 
C     1.6596776   -0.4437492    3.9129042 
C     1.3567218   -0.3933067    2.5839588 
H     0.3402764    0.6974802    1.0613649 
H     1.4360710    0.4703086    5.8113200 
H     2.2753782   -1.2447808    4.3135115 
H    -0.4747369    2.3993617    2.5828762 
C     1.8838319   -1.4526617    1.6322762 
C     3.1894441   -1.0220272    0.9026998 
H     1.0824826   -1.7143508    0.9011494 
H     2.0721122   -2.3949681    2.1978794 
C     2.9595319    0.1371256   -0.0341050 
O    -0.0180422    2.4918310    5.1913619 
H    -0.5717522    3.2271253    4.7642208 
O     3.5133836    1.3805581    0.2254815 
N     4.2584586   -0.7450103    1.8973961 
H     3.5224127   -1.8194846    0.1691320 
H     4.1014678    0.1819754    2.3855516 
H     4.2821690   -1.4788547    2.6469132 
N     2.2610213   -0.0790247   -1.2597161 
C     3.0253034    0.0898826   -2.5132068 
H     1.2620171   -0.3830717   -1.2349959 
C     2.5427448    1.2958663   -3.3091125 
O     3.4784743    2.2040010   -3.7880661 
O     1.1999006    1.4778041   -3.6429355 
H     0.6195583    0.7396943   -3.2787558 
C     2.9275722   -1.2050010   -3.3467368 
H     4.1011598    0.3114248   -2.3021891 
C     3.5558695   -2.3702682   -2.6224951 
H     3.4271617   -1.0711092   -4.3326851 
H     1.8618113   -1.4422643   -3.5646522 
C     4.8652080   -2.6501914   -2.5343149 
C     5.9284014   -2.0334726   -3.1107762 
C     7.1783953   -2.5016705   -2.8298409 
C     7.3447160   -3.5622431   -1.9821237 
C     6.2617807   -4.1602569   -1.4086281 
C     5.0357486   -3.6815891   -1.7058564 
H     5.7981185   -1.1878717   -3.7803860 
H     8.0474535   -2.0275907   -3.2808365 
H     8.3448099   -3.9281813   -1.7620286 
H     6.3767869   -4.9978570   -0.7287679 
N     3.7891517   -4.1311289   -1.1925395 
C     2.8844618   -3.2323155   -1.8390796 
H     3.5861665   -4.8749148   -0.4850115 
H     1.8218403   -3.1978126   -1.6310643 
