48
Energy =
C    -2.0233205   -1.4306585   -5.0899894 
C    -0.6746429   -1.2995152   -4.9946147 
C    -2.6190476   -2.6095200   -4.7700169 
C    -1.8612203   -3.6500571   -4.3574039 
C    -0.5137608   -3.5233754   -4.2578605 
C     0.0905826   -2.3428657   -4.5706890 
H    -0.2093018   -0.3497479   -5.2524993 
H    -2.3484529   -4.5861957   -4.1077340 
H     0.0751027   -4.3741157   -3.9269900 
H    -2.6244834   -0.5900470   -5.4202417 
C     1.5994213   -2.2040938   -4.4589831 
C     2.1170553   -1.6978732   -3.0809361 
H     1.9749902   -1.5293312   -5.2616760 
H     2.0667308   -3.1915560   -4.6692587 
C     2.0672969   -0.1766221   -2.9185502 
O    -4.0044034   -2.7786511   -4.8583448 
H    -4.5028644   -1.9491861   -5.1617979 
O     1.0409561    0.5539254   -3.4999969 
N     1.4556114   -2.3811753   -1.9573879 
H     3.1932849   -1.9603349   -3.0409553 
H     0.4507728   -2.0821537   -1.9125648 
H     1.4749321   -3.4160158   -2.1079445 
N     2.8634872    0.4902205   -1.9249514 
C     4.1511273    1.0129556   -2.4436598 
H     2.9886604   -0.1479639   -1.1060984 
C     3.9838441    1.8787515   -3.7017344 
O     4.7263961    1.6042536   -4.8468929 
O     3.1348655    2.9809124   -3.7147655 
H     2.4796282    2.9301571   -2.9463181 
C     5.1960776   -0.1235295   -2.6148648 
H     4.5359063    1.7214290   -1.6764799 
C     6.6136454    0.4061043   -2.5454109 
H     5.0410292   -0.6399740   -3.5885766 
H     5.0701613   -0.8923950   -1.8225539 
C     7.3126255    0.6704672   -1.4304505 
C     6.9599831    0.5216169   -0.1275636 
C     7.8615132    0.8772713    0.8320933 
C     9.0863524    1.3732030    0.4795376 
C     9.4167331    1.5174550   -0.8353919 
C     8.5087169    1.1561473   -1.7660665 
H     5.9852151    0.1339201    0.1543812 
H     7.6035886    0.7687363    1.8829432 
H     9.7982653    1.6571545    1.2506231 
H    10.3816100    1.9147319   -1.1319451 
N     8.6455147    1.2392988   -3.1773160 
C     7.3696125    0.7411242   -3.6069525 
H     9.4592930    1.5678080   -3.7466289 
H     7.0478115    0.6773372   -4.6466793 
