48
 energy: -9.177953269345 gnorm: 0.000840506301 xtb: 6.6.0 (2ccbbd7)
C            0.83650624377471        4.35873989120399        0.73705300358106
C            0.96671229035721        2.99075994170060        0.73054647113825
C            1.48564580873839        5.12696800751953        1.70429594186638
C            2.26804047703050        4.46998773742463        2.65390405563953
C            2.39271636840797        3.10124052376003        2.64002504525296
C            1.73673690680891        2.33958814349989        1.68403093384897
H            0.47818882563757        2.40358463791339       -0.02925108933108
H            2.77317812543614        5.06300119629243        3.39516772407403
H            3.00453124222011        2.60817682388787        3.37582753108413
H            0.23457126438112        4.85023128153702       -0.00627431611728
C            1.89388434513250        0.84921623597059        1.64218581837893
C            2.80335443599590        0.38763845263414        0.50066634931288
H            0.90527788528719        0.39264880165117        1.52444878321251
H            2.28479724501725        0.49181460898010        2.59997575638092
C            2.23217330935983        0.81760763897986       -0.82456896674304
O            1.37643223845592        6.50407336844399        1.74407743573514
H            0.82564442248426        6.81892789651066        0.99527161154444
O            1.11465675525495        0.47309775122909       -1.15694271132994
N            4.18267504305627        0.93855985290215        0.64475600329015
H            2.87960935982208       -0.71004950423780        0.49150933216913
H            3.99944851622266        2.11976630342811        0.57518168222204
H            4.58883860149068        0.81270049879858        1.58953959682893
N            3.02592734286308        1.63704196068343       -1.58571809691565
C            4.42528386276548        1.91367731554194       -1.23999660557499
H            2.74766618654205        1.87934032424967       -2.53475713367476
C            4.73225368882039        3.34475936971043       -1.57175583815957
O            6.03591676906989        3.83359032689426       -2.06879383533114
O            3.72704017700238        4.25605398069685       -1.34391473982764
H            2.98784145823681        3.83898239429414       -0.84016525777411
C            5.32969381787017        0.88699994326693       -1.92448620019061
H            4.56019900277232        1.83175485676479       -0.00595880741601
C            5.31400653055286        1.07138477045005       -3.39896927475636
H            4.99192008916676       -0.12310998755276       -1.67449661067261
H            6.35473228141880        0.97705171594229       -1.55259976784591
C            5.83621494676206        2.20284737562172       -4.00451854840982
C            6.54377852568850        3.34776741398691       -3.39323830181095
C            6.90362069062336        4.41980983349629       -4.36788555861510
C            6.58593145380959        4.31990835910596       -5.68285101073407
C            5.90548889361090        3.20512043974886       -6.21697957050853
C            5.53175157971312        2.15782784386266       -5.37274505328282
H            6.92929753948442        3.14582663836533       -2.16037555635319
H            7.39937325738363        5.29603291107608       -3.99006731484447
H            6.85423777378259        5.12317773268834       -6.34906630795040
H            5.65598511829948        3.15655198461632       -7.26110304980341
N            4.82194284378138        0.97742936283940       -5.58836097236596
C            4.67859231102629        0.33110225658134       -4.39405805208146
H            4.43872042625086        0.69496350185228       -6.49229276979083
H            4.13467979820308       -0.58767782629935       -4.24431626223937
