48
 energy: -9.290714800682 gnorm: 0.000330329230 xtb: 6.6.0 (2ccbbd7)
C            4.07310765509111        3.74894277063700       -6.70653373309325
C            3.53106455027063        3.28342824900475       -5.53315668716356
C            3.28235711375069        3.88664836478534       -7.84768853816334
C            1.93466514906441        3.53749209907426       -7.76334095560132
C            1.39938024563388        3.07320947048487       -6.58554053494427
C            2.18842280845682        2.94296053274328       -5.45208166169332
H            4.15506959775090        3.16242389699256       -4.66228024201339
H            1.32541055003256        3.64422924576733       -8.64297909852744
H            0.35681912422174        2.81025796504561       -6.53431464761633
H            5.11551504088244        4.00854242297987       -6.75483831569410
C            1.61755343468566        2.44047384093038       -4.16261910183115
C            2.19498141566177        1.08766695456981       -3.74001344525465
H            0.52933183764155        2.35596361400176       -4.23151728010107
H            1.81069754455953        3.17949470130349       -3.37745164691606
C            1.78025974223059        0.75850526926689       -2.32766805088802
O            3.79480094911598        4.35191731811055       -9.04357905376666
H            4.74839847733949        4.56041960748741       -8.94194131530407
O            0.63012831627461        0.40326028181273       -2.16836832623027
N            1.76432260855098       -0.00678189161587       -4.59393534190817
H            3.28822244085991        1.14164622773454       -3.80362372276702
H            0.80225706189815       -0.21244985407836       -4.34940685381570
H            1.79090458822332        0.27300362849099       -5.56595731901035
N            2.66961484910686        0.85347618800489       -1.27809707633835
C            4.11802386274028        1.07827977799365       -1.41815907283009
H            2.37711442151766        0.48440253623399       -0.37524619178589
C            4.36131511978976        2.37333770939786       -2.16906268741584
O            5.17464793368243        2.39934280009315       -3.06750193150310
O            3.59692342907316        3.42287793897297       -1.78144977981777
H            2.99668561074873        3.15156107174137       -1.04821971957066
C            4.83369920290854       -0.11591833128575       -2.07181465743520
H            4.52161277754838        1.21051722435434       -0.40310467372906
C            4.26620128988105       -1.43283506807453       -1.67032609473780
H            5.90530706367436       -0.08113403610284       -1.85070188725109
H            4.77053537038182       -0.02686571888796       -3.15921323139202
C            4.68055509352681       -2.25614062019446       -0.58301424728360
C            5.71314531574319       -2.14357780038710        0.36324385334678
C            5.83890341713673       -3.11879238012421        1.31347793916533
C            4.95909842118241       -4.21296788526151        1.35355265987812
C            3.94567568198418       -4.34151675824095        0.44353586699314
C            3.80001331401003       -3.35473290645595       -0.53965211544355
H            6.38119218370023       -1.30135493371336        0.33115346525209
H            6.62484696661581       -3.04766467940464        2.04691809841047
H            5.08515065573705       -4.96231451085665        2.11738557112819
H            3.26508087020578       -5.17348478906490        0.47002566025301
N            2.88381383004165       -3.19504495869944       -1.56531370721867
C            3.16508441985629       -2.03061251115026       -2.23135413721358
H            2.09071454621291       -3.81428502655795       -1.74219212713703
H            2.57784964105777       -1.61826358953410       -3.03725236686874
