48
Energy =
C     1.7295436   -2.6945135   -8.0506218 
C     2.2670335   -1.8682565   -7.1174408 
C     0.8327043   -3.6489407   -7.6840512 
C     0.4796807   -3.7700007   -6.3843706 
C     1.0134242   -2.9467857   -5.4470232 
C     1.9136342   -1.9920004   -5.8084059 
H     2.9819278   -1.1108248   -7.4290222 
H    -0.2365987   -4.5348522   -6.1052584 
H     0.7156310   -3.0588685   -4.4072934 
H     2.0185623   -2.5901688   -9.0910398 
C     2.4929553   -1.0622417   -4.7667773 
C     1.5038508    0.0627264   -4.3788847 
H     3.4534266   -0.6311037   -5.1231810 
H     2.7531447   -1.6591834   -3.8610546 
C     1.9693016    0.8044084   -3.1247537 
O     0.2590365   -4.5147693   -8.6206424 
H     0.5792331   -4.3642031   -9.5711334 
O     1.9482890    0.1180597   -1.9158103 
N     1.2604740    0.9586635   -5.5248714 
H     0.5348154   -0.3986919   -4.0687523 
H     2.1665557    1.2407097   -5.9739960 
H     0.7110526    0.4484085   -6.2557595 
N     2.3379086    2.1976295   -3.1185103 
C     3.7852883    2.5145019   -2.9116616 
H     1.9181231    2.6885132   -3.9398221 
C     4.2627747    3.6044577   -3.8711386 
O     4.7429086    4.8073740   -3.3600435 
O     4.2257155    3.4210587   -5.2608897 
H     3.9251848    2.4936624   -5.5323786 
C     4.7440130    1.2880032   -2.9463427 
H     3.8660623    2.9579174   -1.8945898 
C     6.1534865    1.6656454   -2.5396948 
H     4.7506355    0.8293950   -3.9543358 
H     4.3994072    0.5106460   -2.2301217 
C     7.1729889    1.9985978   -3.3488456 
C     7.2278632    2.0648587   -4.7042108 
C     8.3997732    2.4466637   -5.2884905 
C     9.4880763    2.7518115   -4.5188791 
C     9.4103154    2.6787885   -3.1598307 
C     8.2399761    2.2988364   -2.6054239 
H     6.3625177    1.8337785   -5.3182635 
H     8.4649453    2.5168288   -6.3718940 
H    10.4169109    3.0606444   -4.9920694 
H    10.2617710    2.9238093   -2.5341680 
N     7.9483681    2.1723741   -1.2207518 
C     6.5749232    1.7648283   -1.2661720 
H     8.5701565    2.3283129   -0.3942750 
H     5.9591613    1.5776216   -0.3885880 
