48
Energy =
C     0.2007703   -3.0702453    0.3395503 
C     0.8368551   -1.9698452   -0.1362752 
C     0.7854331   -4.2926954    0.2487749 
C     2.0043561   -4.4075878   -0.3209357 
C     2.6468746   -3.3125431   -0.7976522 
C     2.0777459   -2.0767210   -0.6998310 
H     0.3315509   -1.0172794   -0.0462483 
H     2.4586681   -5.3895361   -0.3941835 
H     3.6227917   -3.4378349   -1.2602258 
H    -0.7801603   -2.9692181    0.7913237 
C     2.8328952   -0.8893165   -1.2862436 
C     2.4746311    0.5134130   -0.7176331 
H     2.7102508   -0.9011196   -2.3906697 
H     3.9127475   -1.0677959   -1.0983279 
C     3.7026928    1.4064188   -0.5974553 
O     0.1549309   -5.4454452    0.7286913 
H    -0.7539897   -5.2753741    1.1451915 
O     4.1523853    1.7914932    0.6606213 
N     1.4393197    1.1575126   -1.5467958 
H     2.1055413    0.4206098    0.3306445 
H     1.7854160    1.2831819   -2.5265650 
H     0.5914135    0.5502799   -1.6107600 
N     4.4690815    1.7873521   -1.7492612 
C     5.8753027    1.3463205   -1.8037866 
H     3.9850976    2.2125029   -2.5716820 
C     6.8007354    2.5608804   -1.8565943 
O     7.3961796    2.9427902   -3.0549840 
O     7.0424677    3.3295022   -0.7215018 
H     6.4164607    3.0689952    0.0292872 
C     6.0543603    0.3977261   -3.0095371 
H     6.1552592    0.7954482   -0.8746509 
C     7.4278661   -0.2435478   -3.0309946 
H     5.8845588    0.9644022   -3.9536286 
H     5.2831787   -0.3998365   -2.9815034 
C     7.8284722   -1.3123558   -2.3235476 
C     7.1368429   -2.0873081   -1.4493131 
C     7.7857752   -3.1243131   -0.8466795 
C     9.1028527   -3.3681825   -1.1222297 
C     9.7786485   -2.5755373   -2.0018422 
C     9.1135148   -1.5571171   -2.5863794 
H     6.0952310   -1.8934923   -1.2243682 
H     7.2540121   -3.7578052   -0.1403584 
H     9.6146348   -4.1947902   -0.6351391 
H    10.8250792   -2.7514543   -2.2276743 
N     9.6315272   -0.6145667   -3.5133860 
C     8.4763761    0.2050677   -3.7455092 
H    10.5916668   -0.5433607   -3.9226840 
H     8.4624848    1.0897867   -4.3827199 
