48
Energy =
C     4.5065867   -2.7152104    1.5155746 
C     4.1491699   -1.9591201    0.4474390 
C     3.5526723   -3.2548968    2.3204889 
C     2.2463019   -3.0314659    2.0508752 
C     1.8828814   -2.2753869    0.9838024 
C     2.8339495   -1.7370819    0.1725119 
H     4.9248937   -1.5311603   -0.1809066 
H     1.4958500   -3.4654617    2.7023228 
H     0.8276260   -2.1057375    0.7873366 
H     5.5574335   -2.8848659    1.7248488 
C     2.4407201   -0.8926199   -1.0187312 
C     2.6823407    0.6184664   -0.7668363 
H     1.3754153   -1.0602169   -1.2937705 
H     3.0314659   -1.2440463   -1.8927355 
C     2.7052222    1.4093282   -2.0757665 
O     3.8867642   -4.0408212    3.4281761 
H     4.8852368   -4.1431247    3.5729251 
O     1.7930525    2.4339501   -2.2966936 
N     1.6728106    1.1435938    0.1671911 
H     3.6864140    0.7770266   -0.3112071 
H     0.7120623    1.0316980   -0.2352904 
H     1.7110312    0.6223129    1.0739451 
N     3.5169015    0.9861641   -3.1829991 
C     4.9649387    0.7987275   -2.9630142 
H     3.0288772    0.7617517   -4.0800015 
C     5.6987423    2.1263517   -2.7943327 
O     6.5437906    2.2949480   -1.7046788 
O     5.6082082    3.1456896   -3.7410003 
H     4.8761137    2.9572784   -4.4105863 
C     5.5466432   -0.0328940   -4.1245197 
H     5.1349966    0.2301640   -2.0227746 
C     6.9408797   -0.5208816   -3.8000916 
H     5.5635930    0.5721158   -5.0594486 
H     4.8924307   -0.9082603   -4.3295441 
C     7.2607877   -1.6094144   -3.0827892 
C     6.4565919   -2.5508880   -2.5244859 
C     7.0362785   -3.5556132   -1.8072525 
C     8.3951911   -3.6030396   -1.6596017 
C     9.1823447   -2.6449789   -2.2275628 
C     8.5850685   -1.6629147   -2.9349170 
H     5.3773978   -2.5117672   -2.6360673 
H     6.4144770   -4.3209693   -1.3479172 
H     8.8501616   -4.4054167   -1.0838055 
H    10.2609394   -2.6623493   -2.1127821 
N     9.2123559   -0.5599490   -3.5741883 
C     8.0737196    0.1382855   -4.0994305 
H    10.2291866   -0.3249014   -3.6467497 
H     8.1169697    1.0994487   -4.6123109 
