48
Energy =
C    -1.3041040   -1.6556503   -1.9225178 
C     0.0303473   -1.5400421   -2.1461953 
C    -1.8026972   -2.7696359   -1.3242356 
C    -0.9619955   -3.7606189   -0.9516035 
C     0.3727775   -3.6500439   -1.1710614 
C     0.8778384   -2.5376529   -1.7720328 
H     0.4133477   -0.6407595   -2.6206439 
H    -1.3731225   -4.6423390   -0.4735531 
H     1.0305594   -4.4566605   -0.8606206 
H    -1.9713642   -0.8540984   -2.2202628 
C     2.3674753   -2.4072529   -2.0119966 
C     3.1048899   -1.6239490   -0.8975674 
H     2.5388695   -1.9108732   -2.9892354 
H     2.8248127   -3.4160362   -2.1140278 
C     2.6458766   -0.1699350   -0.7996114 
O    -3.1717510   -2.9205169   -1.0826740 
H    -3.7276704   -2.1242120   -1.3733759 
O     2.0172055    0.2939870    0.3529542 
N     2.9998537   -2.3273497    0.3923384 
H     4.1829498   -1.5779929   -1.1640362 
H     2.0143128   -2.2716960    0.7481729 
H     3.2377448   -3.3393525    0.2768616 
N     2.7764322    0.7267029   -1.9210691 
C     4.1800149    1.2021167   -2.0820446 
H     2.1457739    1.5282576   -1.6790547 
C     4.3185907    2.7304971   -2.1256942 
O     5.4130321    3.3217466   -1.5076687 
O     3.4245702    3.5494888   -2.8172596 
H     2.7561626    3.0119561   -3.3477990 
C     4.8022688    0.5351914   -3.3300158 
H     4.8114160    0.9085175   -1.2064015 
C     4.1841683    1.0114112   -4.6277695 
H     4.6881057   -0.5667960   -3.2632592 
H     5.8991261    0.7196061   -3.3428922 
C     4.6221409    2.0088367   -5.4143207 
C     5.6998951    2.8234196   -5.2723068 
C     5.9132059    3.7871697   -6.2136074 
C     5.0554305    3.9234703   -7.2697995 
C     3.9762184    3.0991391   -7.3882756 
C     3.7875425    2.1525860   -6.4449823 
H     6.3721887    2.7338679   -4.4240530 
H     6.7640695    4.4573829   -6.1166941 
H     5.2290742    4.6983720   -8.0121374 
H     3.2796105    3.2007684   -8.2132297 
N     2.7199549    1.2192880   -6.3676540 
C     3.0492465    0.5243295   -5.1575023 
H     1.9135209    1.0840009   -7.0196737 
H     2.4464021   -0.2644056   -4.7165194 
