48
Energy =
C    -0.7848380   -4.3045535   -4.6875111 
C    -0.4508224   -3.0657630   -5.1298677 
C    -1.2156132   -4.4810284   -3.4098665 
C    -1.3085587   -3.4151713   -2.5832475 
C    -0.9792219   -2.1741567   -3.0214947 
C    -0.5449124   -1.9902919   -4.2987253 
H    -0.1036505   -2.9417808   -6.1522303 
H    -1.6458928   -3.5688716   -1.5644467 
H    -1.0517618   -1.3318744   -2.3391251 
H    -0.7049483   -5.1533397   -5.3580596 
C    -0.1686301   -0.6064542   -4.7920732 
C     1.3023332   -0.2112851   -4.5126237 
H    -0.8446073    0.1497827   -4.3345051 
H    -0.3514551   -0.5400051   -5.8871565 
C     1.5856580    0.0031522   -3.0313839 
O    -1.5694020   -5.7438466   -2.9231886 
H    -1.4627378   -6.4899331   -3.6015658 
O     1.6680683   -1.0711549   -2.1487918 
N     2.2453620   -1.1673662   -5.1226070 
H     1.4667226    0.7862386   -4.9877775 
H     2.1681823   -2.0947499   -4.6365775 
H     1.9969449   -1.3172449   -6.1285671 
N     1.8715225    1.3215765   -2.5412943 
C     3.3121959    1.7079890   -2.5003884 
H     1.4632344    1.3642486   -1.5787136 
C     3.4840070    3.0764671   -3.1553216 
O     3.0196191    3.2753251   -4.4504189 
O     4.1695288    4.1173721   -2.5264440 
H     4.5074360    3.8655165   -1.6110599 
C     4.2770898    0.6715602   -3.1515188 
H     3.6134051    1.8136603   -1.4330310 
C     5.7298947    1.0522185   -2.9580248 
H     4.0461155    0.5555243   -4.2352312 
H     4.1260983   -0.3328952   -2.6957001 
C     6.5083409    1.7508445   -3.8018909 
C     6.2284253    2.2648976   -5.0275740 
C     7.2090665    2.9494629   -5.6827666 
C     8.4412363    3.1081216   -5.1118360 
C     8.7000354    2.5844165   -3.8802976 
C     7.7135321    1.9115578   -3.2513995 
H     5.2497240    2.1511986   -5.4843621 
H     7.0059446    3.3770178   -6.6619252 
H     9.2155715    3.6588968   -5.6401258 
H     9.6708048    2.7056898   -3.4116751 
N     7.7734688    1.3021116   -1.9692831 
C     6.4465870    0.7733428   -1.8544349 
H     8.5718416    1.2559504   -1.2948570 
H     6.0749729    0.2289384   -0.9886656 
