48
Energy =
C     0.2202597   -0.4806423   -5.6038540 
C     0.5363317   -1.5377538   -4.8121876 
C    -1.0075048    0.0964510   -5.5142010 
C    -1.9090171   -0.3865680   -4.6295516 
C    -1.5936402   -1.4361631   -3.8286367 
C    -0.3660813   -2.0186651   -3.9160725 
H     1.5241292   -1.9903548   -4.8858015 
H    -2.8837448    0.0841763   -4.5664780 
H    -2.3285583   -1.8008095   -3.1164012 
H     0.9558202   -0.0928755   -6.3015658 
C     0.0045003   -3.1701883   -3.0050221 
C     0.8509933   -2.7379485   -1.7809074 
H     0.5667480   -3.9372102   -3.5854026 
H    -0.9127509   -3.6863242   -2.6462219 
C     2.2513054   -2.2751362   -2.1652392 
O    -1.3681460    1.1827343   -6.3177481 
H    -0.6161863    1.5181381   -6.9102032 
O     2.9996579   -3.0563218   -3.0417273 
N     0.1351693   -1.7340149   -0.9728923 
H     1.0160903   -3.6409091   -1.1513042 
H     0.0516234   -0.8388890   -1.5131827 
H    -0.8347023   -2.0699313   -0.7697546 
N     2.9484888   -1.3349789   -1.3370225 
C     3.8352673   -0.3411730   -1.9691917 
H     2.7464820   -1.3203640   -0.3122002 
C     3.2664358    0.2549208   -3.2652018 
O     2.5399213    1.4366534   -3.1944146 
O     3.4385614   -0.3365894   -4.5213577 
H     3.8496078   -1.2547422   -4.4495393 
C     5.2477696   -0.9510022   -2.0999677 
H     3.9102983    0.5263650   -1.2753066 
C     6.2609408    0.0667880   -2.5756783 
H     5.2294702   -1.8399126   -2.7694619 
H     5.5607586   -1.3548913   -1.1130414 
C     6.9101006    0.9657928   -1.8185555 
C     6.8572406    1.1751942   -0.4778077 
C     7.6195990    2.1744776    0.0522030 
C     8.4114715    2.9423507   -0.7563451 
C     8.4450473    2.7161336   -2.1004403 
C     7.6840097    1.7199966   -2.6002595 
H     6.2248099    0.5716063    0.1658300 
H     7.5950116    2.3639215    1.1227169 
H     9.0135762    3.7391569   -0.3267426 
H     9.0625148    3.3199092   -2.7567995 
N     7.5617047    1.3321234   -3.9610722 
C     6.6140738    0.2602593   -3.8590353 
H     8.0404739    1.7212913   -4.8056797 
H     6.2113009   -0.2881506   -4.7098913 
