48
Energy =
C     3.3074417    4.2682950    4.3106434 
C     3.7243521    3.6152963    3.1960274 
C     2.0032790    4.6292146    4.4431161 
C     1.1248552    4.3360383    3.4575324 
C     1.5361150    3.6837576    2.3407051 
C     2.8402153    3.3178762    2.2036653 
H     4.7706003    3.3348864    3.1002613 
H     0.0877192    4.6319942    3.5749322 
H     0.8144091    3.4593869    1.5594062 
H     4.0191747    4.5022621    5.0953022 
C     3.2968944    2.5806740    0.9639306 
C     2.8134736    1.1054924    0.9387921 
H     4.4056493    2.6088114    0.8776444 
H     2.9190585    3.1400891    0.0769767 
C     3.0736730    0.3977533   -0.3894050 
O     1.5403060    5.2995398    5.5791782 
H     2.2593985    5.4954539    6.2671770 
O     2.7022556   -0.9362909   -0.4973030 
N     3.4297387    0.3560469    2.0460500 
H     1.7056668    1.0759747    1.0570378 
H     4.4732319    0.4387943    2.0064748 
H     3.1025862    0.7287414    2.9675321 
N     3.1826761    1.1449275   -1.6088350 
C     4.5200873    1.6329893   -1.9939939 
H     2.3148458    1.3624619   -2.1466119 
C     4.5127891    3.1442227   -2.1601507 
O     5.2338864    3.9225594   -1.2657631 
O     3.7448474    3.7843206   -3.1306080 
H     3.2557243    3.1273089   -3.7166988 
C     4.9853661    0.9202412   -3.2789855 
H     5.2669504    1.4254672   -1.1905845 
C     5.3464960   -0.5234085   -3.0077685 
H     5.8843448    1.4376256   -3.6854131 
H     4.2057347    0.9803378   -4.0668664 
C     4.5499534   -1.5978430   -3.1282583 
C     3.2575562   -1.6858911   -3.5351336 
C     2.6689834   -2.9161330   -3.5647809 
C     3.3730059   -4.0277719   -3.1924569 
C     4.6694376   -3.9154445   -2.7862082 
C     5.2291952   -2.6875783   -2.7651194 
H     2.6926537   -0.8035161   -3.8154762 
H     1.6317579   -3.0114516   -3.8758070 
H     2.8948856   -5.0037832   -3.2121621 
H     5.2401779   -4.7857553   -2.4811525 
N     6.5538115   -2.3555212   -2.3721940 
C     6.5438498   -0.9335662   -2.5527226 
H     7.3256343   -2.9813021   -2.0460600 
H     7.3862931   -0.2803119   -2.3364787 
