48
Energy =
C    -3.8654669    3.0612302   -0.5231329 
C    -2.7901789    2.5432115   -1.1687837 
C    -3.6903949    3.8731318    0.5537561 
C    -2.4385032    4.1607098    0.9773120 
C    -1.3594967    3.6453646    0.3355271 
C    -1.5296531    2.8354213   -0.7452251 
H    -2.9452145    1.8927671   -2.0261182 
H    -2.3120853    4.8080435    1.8380341 
H    -0.3612254    3.8839207    0.6942397 
H    -4.8652025    2.8230417   -0.8695954 
C    -0.3325493    2.2431191   -1.4544078 
C    -0.0767423    0.7766966   -1.0320984 
H     0.5738579    2.8603939   -1.2660994 
H    -0.5044569    2.2972798   -2.5542177 
C     0.9041173    0.1016290   -1.9766598 
O    -4.7772038    4.4221262    1.2425444 
H    -5.6797327    4.1614492    0.8607504 
O     0.5011874   -0.1918632   -3.2752781 
N     0.3717521    0.7081843    0.3712495 
H    -1.0201045    0.1912805   -1.1430881 
H     1.1419864    1.3986932    0.5376780 
H    -0.4199183    0.9769820    1.0027717 
N     2.2348071   -0.2397507   -1.5593674 
C     3.3727623    0.5170486   -2.1156132 
H     2.3547173   -1.0221462   -0.8781227 
C     3.1854925    2.0262211   -1.9684168 
O     2.7980784    2.7952541   -3.0606967 
O     3.3470355    2.6569744   -0.7334918 
H     3.5786788    1.9961992   -0.0048921 
C     3.6430611    0.0863653   -3.5740624 
H     4.2798820    0.2705771   -1.5205415 
C     3.9868940   -1.3834020   -3.6606322 
H     4.4756807    0.6861287   -4.0020048 
H     2.7526097    0.3013762   -4.2078840 
C     5.1875442   -1.9423051   -3.4439429 
C     6.3755447   -1.3612685   -3.1355933 
C     7.4624739   -2.1656719   -2.9556170 
C     7.3463272   -3.5225608   -3.0824501 
C     6.1420765   -4.0834562   -3.3895276 
C     5.0823586   -3.2665152   -3.5648885 
H     6.4689052   -0.2844521   -3.0324647 
H     8.4261555   -1.7260317   -2.7095211 
H     8.2168752   -4.1572029   -2.9365690 
H     6.0314799   -5.1577983   -3.4903081 
N     3.7482223   -3.6439747   -3.8734411 
C     3.1016630   -2.3642248   -3.9096882 
H     3.3458276   -4.5963995   -4.0299048 
H     2.0376807   -2.2141964   -4.0875123 
