48
 energy: -9.070135113531 gnorm: 0.000227997648 xtb: 6.6.0 (2ccbbd7)
C            0.98710079217698       -0.81563671111415       -4.41109658904723
C            0.91737704588602       -0.85117956793583       -3.03921453125806
C           -0.04470055855511       -0.24633367953643       -5.15726074723551
C           -1.13888187577883        0.28377483890038       -4.47404600852923
C           -1.19910481994212        0.24635446927864       -3.10122352308423
C           -0.17414393066757       -0.32533644861034       -2.36212090474401
H            1.72294947310215       -1.28121639529734       -2.46869806696861
H           -1.93119959182359        0.72716487800153       -5.05028297620256
H           -2.04714023348078        0.66597251384481       -2.58773175999812
H            1.83711304706115       -1.23061179435428       -4.92308318926088
C           -0.19186524731842       -0.30238535369037       -0.86347863110381
C            0.55592400611804        0.90914981307110       -0.29126321885438
H            0.26550136549566       -1.22443383145650       -0.48952481970097
H           -1.22588334886183       -0.30701064751917       -0.50554337491708
C            1.97177975450194        0.93446806674034       -0.82329272506265
O           -0.00803055438962       -0.19169854359826       -6.53758326592058
H            0.84154837338895       -0.55622213399004       -6.86714002495117
O            2.80240165033047        0.20668491425720       -0.31823090642701
N           -0.14294628181474        2.16021119472758       -0.56553212903957
H            0.63788867836785        0.81417473107814        0.80383472863356
H           -0.33370957444603        2.23373670579881       -1.55563144765242
H           -1.04115987710771        2.17461391567578       -0.09845579597416
N            2.22904749314567        1.74697695652858       -1.90229395454753
C            3.56958023980645        1.93427375866848       -2.45036217339245
H            1.55886783596209        2.47446715497121       -2.17431332494430
C            3.44918673901029        2.72755177724973       -3.71664543301135
O            4.39670479119754        3.66178620381630       -4.01657929784640
O            2.37385229096387        2.45435177862467       -4.53070922684697
H            1.89521176117791        1.64865217742201       -4.22027156083019
C            4.30176030795730        0.60108048503015       -2.69097358847661
H            4.13004228016602        2.52165608922995       -1.70890289341887
C            5.78585463390400        0.64098822395284       -2.50125596981707
H            4.06652317759323        0.23145175135460       -3.69361162330265
H            3.89700614938033       -0.14216071503260       -1.99677681846543
C            6.70295754541639        1.69047897881211       -2.81587551098101
C            6.55153706624291        2.97499594350815       -3.35310103725879
C            7.64980440025590        3.76165953921700       -3.53048838280355
C            8.93083459957688        3.30476447845980       -3.18090307316162
C            9.11294694253094        2.05546852772609       -2.65427025263118
C            7.99180392253040        1.23616141149324       -2.46780284099266
H            5.43068937014748        3.35228493508170       -3.68254811521207
H            7.53069885494313        4.74729787342829       -3.94866127569477
H            9.78099947653582        3.94889731149871       -3.33271648822115
H           10.08869664919161        1.69350378016994       -2.38419983856517
N            7.85981525507151       -0.04602972807533       -1.96864126625659
C            6.53257053179066       -0.39382778971403       -1.99287341342791
H            8.63188819544456       -0.62196044330617       -1.62805607563276
H            6.13917791102987       -1.33882796497781       -1.65424202110238
