48
Energy =
C    -0.0545657   -0.9467916    3.6848443 
C     0.3150496    0.0530911    2.8449868 
C    -1.1716660   -1.6777033    3.4276094 
C    -1.9132800   -1.4014569    2.3318051 
C    -1.5487379   -0.4034076    1.4889525 
C    -0.4282468    0.3311703    1.7380790 
H     1.2084249    0.6302807    3.0694590 
H    -2.8028438   -1.9904128    2.1379452 
H    -2.1573903   -0.1992763    0.6123263 
H     0.5464044   -1.1590649    4.5627483 
C    -0.0126715    1.4398800    0.7896837 
C     0.9865468    0.9862377   -0.3058313 
H     0.4365365    2.2772537    1.3709877 
H    -0.9113529    1.8735148    0.2986891 
C     2.3525485    0.6041092    0.2481408 
O    -1.5794247   -2.7158404    4.2706556 
H    -0.9739574   -2.8572358    5.0722242 
O     2.9023687    1.3376336    1.2955682 
N     0.4107894   -0.0869242   -1.1361607 
H     1.1837421    1.8640279   -0.9638368 
H     0.2400452   -0.9449777   -0.5623513 
H    -0.5030719    0.2287171   -1.5378691 
N     3.2347395   -0.2022345   -0.5408560 
C     4.3549824    0.4975259   -1.1970766 
H     3.0837716   -1.2352598   -0.5676087 
C     3.8796285    1.3747620   -2.3507536 
O     4.3887653    2.6606200   -2.4765272 
O     3.0028024    0.9050052   -3.3289475 
H     2.6190250    0.0045377   -3.0776230 
C     5.3878559   -0.5471095   -1.6675895 
H     4.8419985    1.1903475   -0.4681592 
C     6.6541046    0.1089629   -2.1716134 
H     4.9450249   -1.1779192   -2.4711409 
H     5.6340953   -1.2343579   -0.8287000 
C     7.7007933    0.5108736   -1.4337240 
C     7.9106673    0.4152255   -0.0954598 
C     9.0692974    0.9219038    0.4161195 
C     9.9876724    1.5131914   -0.4070720 
C     9.7520866    1.6030333   -1.7470382 
C     8.6003370    1.0912858   -2.2295192 
H     7.1783532   -0.0442973    0.5616047 
H     9.2611036    0.8604873    1.4847931 
H    10.9064707    1.9191011    0.0088429 
H    10.4652823    2.0770079   -2.4128306 
N     8.1544973    1.1006462   -3.5782411 
C     6.8794265    0.4552682   -3.4512592 
H     8.6326679    1.4691341   -4.4322812 
H     6.1702595    0.3171098   -4.2675947 
