48
Energy =
C    -1.6798550   -3.1442893    0.5514304 
C    -0.9682210   -2.4011540   -0.3329057 
C    -2.8299510   -2.6538096    1.0861949 
C    -3.2591660   -1.4211724    0.7315331 
C    -2.5507763   -0.6737053   -0.1524305 
C    -1.4008761   -1.1620704   -0.6928251 
H    -0.0499809   -2.8030644   -0.7486134 
H    -4.1771161   -1.0404126    1.1656505 
H    -2.9111304    0.3158982   -0.4208662 
H    -1.3261186   -4.1306005    0.8308450 
C    -0.5983406   -0.3309225   -1.6686123 
C     0.6835260    0.2626178   -1.0322964 
H    -1.2128740    0.4927139   -2.0966638 
H    -0.3265953   -0.9710454   -2.5342990 
C     1.5817700    0.9422100   -2.0688673 
O    -3.5865829   -3.3932182    2.0013284 
H    -3.1990825   -4.3056621    2.2142376 
O     1.2299753    0.9220683   -3.4181066 
N     0.3318920    1.2026588    0.0458734 
H     1.2945912   -0.5645595   -0.6057283 
H    -0.3159937    1.9380867   -0.3258049 
H    -0.1718238    0.6958392    0.8110594 
N     2.7465775    1.6857374   -1.6572701 
C     4.0579003    1.3275118   -2.2694058 
H     2.8204666    1.6349069   -0.6154537 
C     4.6550919    2.5574370   -2.9547700 
O     5.0850572    2.4867296   -4.2770911 
O     4.8596355    3.7482713   -2.2558333 
H     4.4401365    3.7196703   -1.3379412 
C     4.0505648    0.0995487   -3.2292770 
H     4.7804221    1.0970408   -1.4547065 
C     3.6316873   -1.2005711   -2.5700907 
H     5.0813810   -0.0550927   -3.6192367 
H     3.4369293    0.3479553   -4.1211201 
C     2.6942746   -2.0676027   -2.9990047 
C     1.8450929   -1.9933133   -4.0582543 
C     0.9837961   -3.0298770   -4.2749315 
C     0.9861740   -4.1148828   -3.4445712 
C     1.8461948   -4.1701203   -2.3895697 
C     2.6825037   -3.1302808   -2.1903567 
H     1.8183803   -1.1216132   -4.7082879 
H     0.2861249   -2.9906539   -5.1093234 
H     0.2968835   -4.9371666   -3.6248769 
H     1.8606710   -5.0251407   -1.7213154 
N     3.6461772   -2.9962435   -1.1568615 
C     4.2239858   -1.7263938   -1.4820153 
H     3.8711643   -3.6477125   -0.3687390 
H     5.0549074   -1.2781225   -0.9413292 
