48
 energy: -9.297504738549 gnorm: 0.000825808129 xtb: 6.6.0 (2ccbbd7)
C           -2.91401965957823       -1.68601937311116       -1.54765556541455
C           -1.55634443705993       -1.49648656863854       -1.64237297021314
C           -3.52724100106661       -1.80968311112458       -0.30028005395849
C           -2.72822044421488       -1.73247924278732        0.84035488070133
C           -1.37128190763052       -1.54034661846618        0.73675215938845
C           -0.76527654034414       -1.42528866071263       -0.50509081952895
H           -1.09082941836391       -1.40007156619295       -2.60762303920842
H           -3.20162892867433       -1.82553981470402        1.80144302340970
H           -0.76540507991164       -1.47566613539398        1.62420986114236
H           -3.51781583225867       -1.74037633532650       -2.43570597619979
C            0.70340064023191       -1.16953503953201       -0.61766389202101
C            1.08610460078127        0.28863088133405       -0.35336041822673
H            1.04633329872933       -1.44293408843816       -1.61874472378822
H            1.25312439831627       -1.82399206814718        0.06680194249105
C            2.57807920615350        0.47931139127940       -0.51339305271422
O           -4.88904289735367       -2.00235383516643       -0.16790449992816
H           -5.31217601982637       -2.03296983073311       -1.05325601879840
O            3.33322601178460       -0.45616541881112       -0.33656992065792
N            0.36193276961326        1.20490657752744       -1.22600866926958
H            0.82559784860687        0.54761568045384        0.68434412977641
H            0.66609330510816        1.09806107015334       -2.19674762025120
H           -0.63194477192436        1.02207699894369       -1.19315281802210
N            3.02028710877661        1.72768406140394       -0.89715535411578
C            4.31558345887966        1.87841697742397       -1.53976453421471
H            2.34217406234955        2.44045684412623       -1.21405540841362
C            4.46494693929266        3.30800754514212       -2.02221659898148
O            3.47772737240681        3.85376054300320       -2.46299137470577
O            5.70166334885626        3.86316143617003       -1.95407033941766
H            6.35428531193846        3.24588749796358       -1.55678285462378
C            4.46378887459684        0.87657912942081       -2.70083570087861
H            5.07463458268977        1.68354429970830       -0.76895387327893
C            3.19095298996978        0.67589798799132       -3.45975799393119
H            4.77559707764510       -0.09243018659191       -2.29665871404499
H            5.25613939960437        1.20274557683628       -3.38150959850718
C            2.56257684999470       -0.57479089439472       -3.74401170387587
C            2.93965696261326       -1.90912356527987       -3.51386110046374
C            2.07880770437424       -2.90630200769588       -3.88058559952043
C            0.84043897008457       -2.61637363878539       -4.47630247393316
C            0.44829206211053       -1.32560496139544       -4.70239992690997
C            1.31229055576800       -0.28940029599272       -4.32740432867734
H            3.88135679759530       -2.12726589416689       -3.04250649191596
H            2.35294165639190       -3.93373864092066       -3.70781358261973
H            0.18849211854951       -3.42665225994236       -4.75812479359699
H           -0.49788168878532       -1.09452344282256       -5.15834530610500
N            1.17865465521744        1.08701229619856       -4.37160809087578
C            2.32555566113292        1.65619128171988       -3.87621883536783
H            0.40340617168248        1.58408785200798       -4.81640950522088
H            2.46903507478114        2.71259649203640       -3.71610408871888
