48
Energy =
C    -2.7861780   -2.0511006   -1.5412691 
C    -1.6164638   -2.0703123   -0.8539135 
C    -3.1839654   -0.9191438   -2.1811336 
C    -2.4058744    0.1859904   -2.1302062 
C    -1.2348789    0.1723573   -1.4443689 
C    -0.8347348   -0.9566581   -0.7971564 
H    -1.3067161   -2.9832977   -0.3519440 
H    -2.7322087    1.0812471   -2.6483443 
H    -0.6232891    1.0698998   -1.4204180 
H    -3.4010056   -2.9437344   -1.5796910 
C     0.4804372   -0.9872435   -0.0481153 
C     1.5859268   -1.7041557   -0.8514909 
H     0.3340118   -1.5134024    0.9207882 
H     0.8119955    0.0428221    0.2115734 
C     1.8793073   -1.0077581   -2.1717851 
O    -4.3850809   -0.8642777   -2.8957329 
H    -4.9045640   -1.7353357   -2.8985491 
O     1.6280518   -1.6572369   -3.3769020 
N     2.7986903   -1.8211245   -0.0227470 
H     1.2382633   -2.7297070   -1.1216880 
H     3.0703981   -0.8851253    0.3651021 
H     2.6075048   -2.4494881    0.7936431 
N     2.5008198    0.2820816   -2.1988440 
C     3.9546734    0.3029785   -2.4197722 
H     1.9204432    1.1373484   -2.0507462 
C     4.6012113    1.4591099   -1.6602671 
O     4.0334541    2.7271101   -1.7345537 
O     5.7886166    1.3013140   -0.9433510 
H     6.1404521    0.3553838   -0.9847719 
C     4.2119899    0.3979659   -3.9359323 
H     4.4010261   -0.6433702   -2.0320656 
C     5.6717573    0.1848285   -4.2689331 
H     3.8505467    1.3733174   -4.3287248 
H     3.6066448   -0.3819683   -4.4548480 
C     6.6229808    1.1253306   -4.3933081 
C     6.5347251    2.4767114   -4.2897367 
C     7.6703432    3.2145741   -4.4511881 
C     8.8635462    2.5991069   -4.7106737 
C     8.9289119    1.2409753   -4.8081121 
C     7.7917490    0.5327548   -4.6448939 
H     5.5924400    2.9710101   -4.0735184 
H     7.6268627    4.2978604   -4.3655229 
H     9.7647076    3.1947208   -4.8334897 
H     9.8684782    0.7367013   -5.0069195 
N     7.6461950   -0.8795782   -4.6914392 
C     6.2446496   -1.0208640   -4.4306873 
H     8.3671513   -1.6161645   -4.8686504 
H     5.7278856   -1.9754270   -4.3558514 
