48
Energy =
C     4.2550312    3.5901872    4.5685892 
C     4.4172110    2.8707955    3.4296706 
C     3.3883187    4.6373030    4.5982286 
C     2.6880587    4.9573997    3.4867272 
C     2.8450356    4.2410250    2.3445430 
C     3.7143229    3.1928010    2.3079322 
H     5.1098568    2.0333053    3.4249018 
H     1.9999604    5.7952800    3.5258497 
H     2.2731048    4.5128765    1.4591893 
H     4.8194187    3.3245127    5.4558791 
C     3.8781316    2.3848433    1.0351104 
C     2.7108515    1.3824654    0.8231396 
H     4.8450540    1.8394297    1.0628686 
H     3.9127735    3.1248362    0.2194616 
C     2.5732029    0.5630793   -0.4845543 
O     3.1976246    5.3990382    5.7551612 
H     3.7566437    5.0962531    6.5454147 
O     1.4848073   -0.3041759   -0.5085629 
N     2.6657801    0.4537751    1.9673215 
H     1.7649429    1.9743389    0.8225410 
H     3.6021261    0.0114586    2.1198352 
H     2.3798071    0.9508069    2.8427181 
N     3.3233963    0.6122903   -1.7266354 
C     4.4499732    1.5402911   -1.9470848 
H     2.5962405    0.7627048   -2.4667133 
C     4.0097175    2.9771852   -2.2307932 
O     2.6693040    3.2798751   -2.4172094 
O     4.9364113    4.0164012   -2.2878902 
H     5.8698645    3.7127705   -2.0539314 
C     5.2971318    0.9956927   -3.1185380 
H     5.1272394    1.5302995   -1.0763278 
C     4.5431383    0.9698198   -4.4349043 
H     5.6524493   -0.0257929   -2.8634513 
H     6.2146751    1.6113271   -3.2417499 
C     3.8682952   -0.0660656   -4.9609019 
C     3.6885604   -1.3245698   -4.4818338 
C     2.9316330   -2.1939594   -5.2106780 
C     2.3687254   -1.7974545   -6.3920241 
C     2.5563279   -0.5273106   -6.8499811 
C     3.3113695    0.3136195   -6.1126010 
H     4.1156079   -1.6386111   -3.5340670 
H     2.7665594   -3.2045840   -4.8443758 
H     1.7608599   -2.4945628   -6.9634432 
H     2.1067632   -0.1926904   -7.7787235 
N     3.6038406    1.6743440   -6.3956091 
C     4.3963721    2.0285110   -5.2528040 
H     3.3253293    2.2536503   -7.2212174 
H     4.7706832    3.0322113   -5.0441657 
