48
Energy =
C    -3.2541445    0.4755628   -0.7298216 
C    -1.9463209    0.4668168   -1.0910432 
C    -3.8484689   -0.6642187   -0.2858577 
C    -3.1279711   -1.8061602   -0.2061157 
C    -1.8195670   -1.8207301   -0.5659586 
C    -1.2215641   -0.6836162   -1.0146480 
H    -1.4845796    1.3873208   -1.4394616 
H    -3.6124466   -2.7082474    0.1506584 
H    -1.2552920   -2.7471838   -0.4926282 
H    -3.8222795    1.3968895   -0.7958877 
C     0.2413011   -0.6961768   -1.3975983 
C     1.1679201   -0.6437817   -0.1594479 
H     0.4718269    0.1474354   -2.0855285 
H     0.4503741   -1.6228790   -1.9796066 
C     2.6128250   -0.9067744   -0.5508538 
O    -5.1942955   -0.6887947    0.0955599 
H    -5.6641644    0.2049007    0.0020097 
O     2.9671779   -2.1472555   -1.0709631 
N     1.0194712    0.6383813    0.5526376 
H     0.9029548   -1.4776378    0.5308823 
H     1.0719040    1.4346964   -0.1267675 
H     0.0733234    0.6774347    0.9991057 
N     3.6322801    0.0872775   -0.3697553 
C     4.2136638    0.7188987   -1.5660897 
H     3.9427353    0.3168321    0.6005317 
C     3.1453562    1.4251007   -2.4018757 
O     2.5907700    0.7957883   -3.5108022 
O     2.6401906    2.6709619   -2.0264513 
H     3.0709363    3.0086413   -1.1771800 
C     5.0356479   -0.3250030   -2.3569645 
H     4.9138025    1.5108753   -1.2193551 
C     5.9470328    0.3221674   -3.3785121 
H     4.3593986   -1.0715728   -2.8286944 
H     5.6580845   -0.9081470   -1.6426116 
C     5.7942823    0.3505282   -4.7144806 
C     4.8243072   -0.1880894   -5.4990560 
C     4.9079208   -0.0110803   -6.8489369 
C     5.9486100    0.6902302   -7.3910289 
C     6.9125759    1.2196211   -6.5862469 
C     6.8073554    1.0327838   -5.2537765 
H     3.9924562   -0.7441074   -5.0788100 
H     4.1399825   -0.4278571   -7.4966353 
H     6.0066727    0.8277563   -8.4679713 
H     7.7447987    1.7788676   -7.0001250 
N     7.6998662    1.4970439   -4.2514687 
C     7.0698607    0.9943650   -3.0679055 
H     8.5792115    2.0539655   -4.3521723 
H     7.4525885    1.1426564   -2.0607929 
