48
Energy =
C    -1.8807780    3.7072489   -1.5568335 
C    -1.1944300    2.5934437   -1.9174307 
C    -1.2511566    4.9114157   -1.5047012 
C     0.0629935    4.9918807   -1.8119898 
C     0.7531091    3.8826767   -2.1760335 
C     0.1283058    2.6736410   -2.2321267 
H    -1.7102364    1.6375647   -1.9474468 
H     0.5570237    5.9554885   -1.7590689 
H     1.8087459    3.9713555   -2.4151410 
H    -2.9338614    3.6323928   -1.3083642 
C     0.8999658    1.4267373   -2.6176177 
C     1.6526697    0.7838512   -1.4261544 
H     1.6227720    1.6730777   -3.4260558 
H     0.2105907    0.6745351   -3.0608633 
C     2.7448323    1.6919949   -0.8722506 
O    -1.9308818    6.0790153   -1.1416250 
H    -2.9061807    5.9333060   -0.9050267 
O     2.6238624    2.2809592    0.3811321 
N     0.7109638    0.3417499   -0.3840848 
H     2.1818634   -0.1185002   -1.8004824 
H     0.2940578    1.1753460    0.0962373 
H    -0.0707651   -0.2071035   -0.8095680 
N     3.9451189    1.9176117   -1.6236977 
C     5.2067204    1.4564206   -1.0098294 
H     3.8837251    2.3499074   -2.5709441 
C     6.1130244    2.6195117   -0.6291962 
O     6.7510613    2.5950882    0.6045492 
O     6.4133253    3.6554249   -1.5160050 
H     5.9141042    3.5639159   -2.3853492 
C     5.9274394    0.4897865   -1.9724817 
H     5.0091612    0.9349218   -0.0410659 
C     5.0744385   -0.7147570   -2.2980398 
H     6.8841125    0.1453302   -1.5177773 
H     6.1972452    1.0254379   -2.9100796 
C     4.8164667   -1.7585005   -1.4951732 
C     5.2648230   -2.0242350   -0.2414592 
C     4.8337446   -3.1634015    0.3721424 
C     3.9718216   -4.0099072   -0.2689522 
C     3.5363739   -3.7228697   -1.5286595 
C     3.9781530   -2.5907445   -2.1151616 
H     5.9505686   -1.3546025    0.2699135 
H     5.1758329   -3.3984418    1.3775779 
H     3.6312184   -4.9146370    0.2286483 
H     2.8510363   -4.3827347   -2.0496825 
N     3.6401496   -2.1035895   -3.4066142 
C     4.3915036   -0.8826570   -3.4441471 
H     3.0063276   -2.5220104   -4.1259499 
H     4.3889829   -0.1821388   -4.2762185 
