48
 energy: -9.281089193233 gnorm: 0.000677629220 xtb: 6.6.0 (2ccbbd7)
C            2.71349103547871       -5.11034983544162       -4.62763018562664
C            1.99043877700848       -4.03445243522275       -4.16872436903281
C            4.06912304671675       -4.97842073137667       -4.93143013383004
C            4.66754219341262       -3.73206386310299       -4.75216619781310
C            3.93751829708391       -2.66324014735076       -4.29281589556970
C            2.58895580742378       -2.79406070348269       -3.99810785978957
H            0.94551127766885       -4.14924694782974       -3.93652881027175
H            5.71270063172525       -3.62864250390317       -4.98319593443098
H            4.41371851344337       -1.70885866019832       -4.15681760148239
H            2.23900650163610       -6.06634951702806       -4.75780570279117
C            1.81111901379775       -1.62450930988097       -3.47878241919353
C            2.31945370874861       -1.13458048590846       -2.12175879325499
H            0.75374435874874       -1.88684013535478       -3.37924198190719
H            1.84451706691930       -0.80971929653072       -4.20886916260249
C            1.57190511517920        0.10499261423204       -1.68598460804670
O            4.82387251426324       -6.03657195116952       -5.40034624387433
H            4.26812312163861       -6.84253365681673       -5.46864540192153
O            0.38098091115584       -0.01009900583270       -1.48173574069665
N            2.17806844585469       -2.14770176889265       -1.08878551338181
H            3.39067357403674       -0.91046895763378       -2.20663874528674
H            1.20256558359770       -2.20455732904138       -0.82688380661565
H            2.46699542071878       -3.05543006363994       -1.43179881475160
N            2.22505997941471        1.30955528931894       -1.51655007650668
C            3.67829166366923        1.46633965673440       -1.63352768424602
H            1.74746907382597        2.03999642292719       -0.99288011093241
C            4.15783452418293        2.71418457502426       -0.92310177265239
O            5.17043113505211        2.63382149262277       -0.26099105461143
O            3.42952072723307        3.83726877698271       -1.12572387026480
H            2.66933882782364        3.66026219601164       -1.72683748761897
C            4.13541080014489        1.47712264813068       -3.09954088500240
H            4.13370457031234        0.61483742839066       -1.10925457622994
C            5.55574861248116        1.05881585068681       -3.28700016445783
H            3.99061361108773        2.47863306294608       -3.51528454955540
H            3.48921885172053        0.81928043959170       -3.68648505226548
C            6.09553264893762        0.39298255698981       -4.42716488362637
C            5.53427486363805       -0.02400298639424       -5.64659356805202
C            6.33290827349003       -0.67112297436287       -6.54813902152044
C            7.68969752399965       -0.91119512553743       -6.27673024093330
C            8.26092819484869       -0.49976113528899       -5.10366228895077
C            7.46022021119329        0.16276004400938       -4.16481394812688
H            4.49742719282915        0.17123880214930       -5.85570733455504
H            5.91663137896069       -1.00271523915233       -7.48494977929690
H            8.29075353818705       -1.42426660521586       -7.00909712301805
H            9.30032993832743       -0.67409254136048       -4.89055785966187
N            7.73938727890348        0.69351657231765       -2.91732378253986
C            6.59076964534244        1.23881739746411       -2.40363612083392
H            8.65894311464412        0.68768782527189       -2.47210416794176
H            6.50897344397855        1.73151763928666       -1.44749577894974
