48
Energy =
C     2.1903221    4.2612367    5.0914403 
C     2.4865426    3.0574751    4.5395973 
C     2.4633025    5.4091241    4.4157763 
C     3.0332329    5.3446609    3.1914256 
C     3.3314920    4.1437016    2.6338337 
C     3.0592594    2.9899185    3.3059584 
H     2.2627945    2.1502516    5.0947509 
H     3.2483198    6.2683287    2.6639154 
H     3.7927913    4.1155164    1.6470752 
H     1.7344154    4.3027207    6.0747395 
C     3.3785382    1.6500194    2.6779780 
C     2.3251507    1.2421020    1.6143143 
H     3.4558629    0.8510671    3.4495405 
H     4.3952307    1.7066994    2.2202521 
C     2.8792896    0.1621537    0.7023459 
O     2.1686646    6.6650448    4.9549758 
H     1.7495629    6.6294252    5.8777386 
O     3.4030348   -1.0080681    1.2412109 
N     1.0728048    0.7784119    2.2445862 
H     2.1149710    2.1203183    0.9565627 
H     1.0634402    0.9269941    3.2798068 
H     0.2617692    1.3171857    1.8598583 
N     3.1233152    0.4526380   -0.6792561 
C     4.4401432    1.0317981   -0.9996259 
H     2.3806800    0.2343571   -1.3790159 
C     4.5113249    2.4936181   -0.5875520 
O     5.5207520    2.9117981    0.2673624 
O     3.5492709    3.4230500   -0.9767239 
H     2.8758948    3.0099549   -1.6043853 
C     4.7476069    0.8609126   -2.4998150 
H     5.2281775    0.5013936   -0.4156242 
C     4.8988481   -0.5976763   -2.8704840 
H     5.6900423    1.3966474   -2.7531484 
H     3.9426951    1.3264778   -3.1095286 
C     5.9529301   -1.3868232   -2.6101534 
C     7.1267267   -1.0959778   -1.9930295 
C     8.0460561   -2.0928715   -1.8463304 
C     7.7816090   -3.3508343   -2.3139995 
C     6.5957217   -3.6190260   -2.9313635 
C     5.7029086   -2.6157056   -3.0646777 
H     7.3371630   -0.0981612   -1.6182451 
H     8.9920548   -1.8860079   -1.3514770 
H     8.5181272   -4.1411696   -2.1901397 
H     6.3680356   -4.6118135   -3.3049918 
N     4.4178181   -2.6836650   -3.6667391 
C     3.9624493   -1.3348943   -3.4935320 
H     3.9395130   -3.4962519   -4.1199446 
H     2.9884748   -0.9700636   -3.8106897 
