48
Energy =
C     2.9377815    1.9136935    2.4139338 
C     2.0688503    2.3784878    1.4807031 
C     2.7800729    0.6672298    2.9337868 
C     1.7475035   -0.1024464    2.5210356 
C     0.8749863    0.3574630    1.5897445 
C     1.0308473    1.6017661    1.0613620 
H     2.2171893    3.3731596    1.0633885 
H     1.6307475   -1.0940641    2.9428561 
H     0.0552529   -0.2790472    1.2682112 
H     3.7621109    2.5407909    2.7379565 
C     0.0675158    2.1145488    0.0098905 
C     0.4715003    1.7336504   -1.4367351 
H    -0.0053937    3.2237035    0.0833137 
H    -0.9573734    1.7395634    0.2231673 
C     1.8724756    2.2151431   -1.7913168 
O     3.6664815    0.1532642    3.8864640 
H     4.3912486    0.8062041    4.1651508 
O     2.1819263    3.5643803   -1.6546161 
N     0.2859415    0.2901469   -1.6710117 
H    -0.1962887    2.2854973   -2.1379143 
H     0.9923271   -0.2580022   -1.1244851 
H    -0.6655802   -0.0153341   -1.3611144 
N     2.8435466    1.3296937   -2.3683986 
C     3.9691986    1.0881253   -1.4359868 
H     3.1735899    1.7880870   -3.2493242 
C     4.9729443    2.2482526   -1.3815946 
O     5.3636063    2.8817812   -2.5567320 
O     5.5953239    2.6146685   -0.1850568 
H     5.2967710    2.0423077    0.5900389 
C     4.6690501   -0.2185858   -1.8524617 
H     3.5776725    0.9404790   -0.4037696 
C     3.7973137   -1.4174538   -1.5528969 
H     5.6393465   -0.3326136   -1.3197970 
H     4.9059876   -0.1880624   -2.9400262 
C     3.6778777   -2.0465088   -0.3733201 
C     4.3106096   -1.8137144    0.8050364 
C     3.9940031   -2.5962903    1.8757595 
C     3.0564252   -3.5845856    1.7563496 
C     2.4286501   -3.7953546    0.5644260 
C     2.7628468   -3.0106760   -0.4815678 
H     5.0449999   -1.0209999    0.9086391 
H     4.4800877   -2.4212136    2.8335594 
H     2.8076283   -4.2001348    2.6171653 
H     1.6781136   -4.5704547    0.4534965 
N     2.2166769   -3.0473766   -1.7923030 
C     2.9352284   -1.9761535   -2.4195879 
H     1.4877852   -3.6807878   -2.1933842 
H     2.7617126   -1.6295304   -3.4361306 
