48
 energy: -9.288708702787 gnorm: 0.000519453111 xtb: 6.6.0 (2ccbbd7)
C            2.76571208113293        3.64413713865699        1.87994242536692
C            2.20814645766942        2.39225959811224        1.78533060002867
C            1.95550364023649        4.77847548935952        1.92101977721337
C            0.57281571387850        4.60346957493778        1.86373036150444
C            0.02466561456480        3.34785356666428        1.74629813897278
C            0.83375262644321        2.22138371209588        1.70328569762514
H            2.84542876519345        1.52593256717631        1.73075083135732
H           -0.05207932711558        5.47801867043206        1.89458670127464
H           -1.04311100397848        3.23103170049856        1.67660864675000
H            3.83612140423054        3.75734640014597        1.87640244899798
C            0.25138775626978        0.85471803367353        1.49517747172107
C            0.51216521270672        0.30532547006388        0.08764721293274
H           -0.82384617167543        0.87246730263727        1.69686401945286
H            0.68459955763212        0.16361222670740        2.22432995329595
C            1.99662037172161        0.16135351539041       -0.13320992932041
O            2.48473206861458        6.05171269288035        2.00744382665512
H            3.46242975716120        6.01097355211657        1.94451257491228
O            2.59193358794998       -0.69630846539965        0.48438634693284
N           -0.12596042441543       -0.98329901443880       -0.13684714340266
H            0.11469081010730        1.01352295404596       -0.65478961955280
H            0.39418349773941       -1.68465235550652        0.37259376757257
H           -1.07642975803182       -0.98112838033154        0.21170088424452
N            2.62491915984715        1.04092390007624       -0.98578302945870
C            4.07728469922743        1.14254075521662       -0.98074406536585
H            2.13431983706416        1.86681861373024       -1.33225851950325
C            4.49904724711364        2.58786699105599       -0.80776588813585
O            5.09950929291936        2.88282111625856        0.20389147231763
O            4.15829524739270        3.45034447144011       -1.79537100717759
H            3.66805014695298        2.99103910280732       -2.51161943083411
C            4.70705378304683        0.48173372206752       -2.20591919908162
H            4.41511423910098        0.59945599951490       -0.08462408140354
C            4.52108625321946       -0.99809739006348       -2.20870079007684
H            5.77592352484163        0.71629793521862       -2.24211392692563
H            4.27117119320737        0.90524376824249       -3.11449149461863
C            3.32928758337269       -1.70485804094309       -2.54674563215988
C            2.06855466432531       -1.28817728850253       -3.00691099048139
C            1.09769756659162       -2.23005281984359       -3.20437329847247
C            1.34479626379266       -3.59044980164679       -2.95910547040567
C            2.56452185474868       -4.01967669777838       -2.51236833338729
C            3.57197575316019       -3.07004231881495       -2.30119731812520
H            1.87822328778440       -0.24233631066066       -3.16887501259618
H            0.12176619432645       -1.92351718506573       -3.54265860703985
H            0.55630198876690       -4.30666585816982       -3.12074649069762
H            2.76007870034910       -5.05824247736898       -2.31424862525582
N            4.87130844269477       -3.18477323374268       -1.83981333803536
C            5.42769674981139       -1.93174387937688       -1.77040955847459
H            5.30270963937908       -4.05661459129032       -1.52705881779280
H            6.42087077957923       -1.71719902914960       -1.40974579096811
