48
Energy =
C     0.1287629   -5.2306707   -0.0332553 
C     0.1889789   -3.8757574    0.0123788 
C     0.8541120   -5.9769247    0.8421297 
C     1.6347368   -5.3607956    1.7586456 
C     1.6986352   -4.0060641    1.8091726 
C     0.9727290   -3.2548028    0.9363592 
H    -0.3953003   -3.2923282   -0.6948636 
H     2.2083166   -5.9676638    2.4506452 
H     2.3357461   -3.5308332    2.5504025 
H    -0.5002235   -5.7154821   -0.7720799 
C     1.0541604   -1.7449262    0.9714199 
C     1.9738390   -1.1816432   -0.1390040 
H     1.4015406   -1.3854817    1.9660953 
H     0.0278246   -1.3287862    0.8520951 
C     1.8510316    0.3283054   -0.2587036 
O     0.8175987   -7.3749251    0.8199633 
H     0.2001816   -7.7595229    0.1132866 
O     1.2802828    1.0830479    0.7600199 
N     3.3746303   -1.5686731    0.1010556 
H     1.6402371   -1.5857726   -1.1225500 
H     3.6641581   -1.2754076    1.0646979 
H     3.4692059   -2.6099241    0.0462494 
N     2.3092047    1.0032322   -1.4334661 
C     3.5228865    1.8320181   -1.2969087 
H     1.8155178    0.8519778   -2.3419493 
C     3.2533575    3.2933962   -1.6472862 
O     4.2698971    4.0718922   -2.1889160 
O     2.0465138    3.9149855   -1.3335048 
H     1.4332897    3.2937641   -0.8223150 
C     4.6707907    1.2030854   -2.1247988 
H     3.8552210    1.8731735   -0.2322448 
C     4.3123775    0.9949101   -3.5850878 
H     4.9557684    0.2346959   -1.6614482 
H     5.5782188    1.8455935   -2.0607476 
C     3.8506536   -0.1340643   -4.1507004 
C     3.6129685   -1.3528825   -3.6001056 
C     3.1282192   -2.3446926   -4.4004383 
C     2.8912540   -2.1080628   -5.7259838 
C     3.1389607   -0.8780007   -6.2588035 
C     3.6192087    0.0864583   -5.4461249 
H     3.8032652   -1.5463752   -2.5507441 
H     2.9322571   -3.3291238   -3.9821925 
H     2.5056789   -2.9038947   -6.3583930 
H     2.9566894   -0.6727859   -7.3082690 
N     3.9346402    1.4248187   -5.7986983 
C     4.3743983    1.9453398   -4.5361934 
H     3.8684707    1.9014894   -6.7275644 
H     4.7021644    2.9715203   -4.3758646 
