48
Energy =
C    -1.0124994    4.2347491    0.1212330 
C    -0.5724159    2.9517812    0.0823720 
C    -0.5381173    5.1466268   -0.7665198 
C     0.3646697    4.7656879   -1.6956817 
C     0.8068554    3.4830505   -1.7404387 
C     0.3689801    2.5691161   -0.8269240 
H    -0.9983139    2.2353993    0.7762994 
H     0.7175519    5.5038141   -2.4083241 
H     1.5025135    3.1947367   -2.5244654 
H    -1.7547167    4.5259321    0.8570764 
C     0.8360722    1.1217556   -0.9010996 
C     1.7663483    0.6157817    0.2477565 
H     1.3437171    0.9372390   -1.8701977 
H    -0.0674522    0.4726213   -0.9280046 
C     3.2017317    1.1487613    0.2659758 
O    -0.9711875    6.4759220   -0.7568093 
H    -1.6401477    6.6877693   -0.0236869 
O     4.0663094    0.7090450    1.2634154 
N     1.1287072    0.7655073    1.5642631 
H     1.9049384   -0.4756894    0.0826532 
H     1.1067034    1.7729644    1.8483300 
H     0.1571287    0.3788323    1.5511086 
N     3.7647967    1.9020103   -0.8157057 
C     4.8637239    1.2870738   -1.5833117 
H     3.2525367    2.7290358   -1.1774693 
C     5.7273636    2.3818516   -2.1996353 
O     5.4464959    2.8438274   -3.4808206 
O     6.7580010    2.9876146   -1.4833395 
H     6.7742495    2.6903727   -0.5181479 
C     4.3100508    0.3396347   -2.6794747 
H     5.5496478    0.7314239   -0.9066004 
C     3.6856176   -0.9419951   -2.1569384 
H     5.1361136    0.0493398   -3.3675330 
H     3.5825816    0.9165189   -3.2883093 
C     2.6039945   -1.5661613   -2.6599383 
C     1.7928448   -1.2164921   -3.6939339 
C     0.7435366   -2.0315527   -4.0011633 
C     0.5243000   -3.1750287   -3.2853534 
C     1.3555243   -3.5128664   -2.2599257 
C     2.3852411   -2.6895143   -1.9732669 
H     1.9628496   -0.3159387   -4.2745679 
H     0.0804725   -1.7733213   -4.8237792 
H    -0.3122015   -3.8217275   -3.5393038 
H     1.2009797   -4.4213841   -1.6873240 
N     3.3652163   -2.8670912   -0.9633071 
C     4.1814359   -1.7068584   -1.1632750 
H     3.4682039   -3.6364440   -0.2616249 
H     5.0772662   -1.4939673   -0.5851913 
