48
 energy: -9.173564837210 gnorm: 0.000920813750 xtb: 6.6.0 (2ccbbd7)
C            4.70748394575908        1.36481147558353        5.32571594217649
C            3.99370118122440        1.71534495007228        4.20414995244588
C            4.73046951020569        0.04157613508178        5.76737400205424
C            4.01322769925764       -0.90921361633012        5.04216769420324
C            3.30217319992250       -0.55084162621229        3.92174060802419
C            3.27829759773037        0.76619381896698        3.48817611075522
H            3.98762025987289        2.73853625694841        3.86946218873974
H            4.03255891888757       -1.92945504467111        5.38100064003236
H            2.75689452293259       -1.29475548515401        3.36676925852826
H            5.25595918464668        2.10900201544270        5.87490711570223
C            2.54174329966506        1.14260275410443        2.24087344296540
C            3.28473106412356        0.75189315725141        0.96473499125691
H            2.36133943280573        2.22162791138711        2.22888015712818
H            1.54885405857174        0.67965459300805        2.24139437563002
C            2.48650625370682        1.12842107397484       -0.25576641324082
O            5.43925087049291       -0.34384833414113        6.88957363060462
H            5.88471022997435        0.43447532337387        7.28910366203408
O            1.33422941368508        0.76145855408144       -0.37710150668102
N            4.63297908147726        1.38511965959451        0.88762889784656
H            3.43427175871987       -0.33723357475540        0.94569162686547
H            4.37714596220105        2.54398466753317        0.74125862400924
H            5.16397833865279        1.35873540296558        1.77603990817938
N            3.13563243271412        1.89857307878363       -1.18895180651162
C            4.57167818663224        2.18883440449444       -1.08846169278039
H            2.71884703756911        2.03746580021693       -2.10820585053433
C            4.84136154324755        3.57486462094754       -1.59809651821301
O            6.13274184599091        3.99720324388113       -2.17999659751935
O            3.83189376823567        4.49809839736211       -1.46652297539562
H            3.02647193047937        4.06325422898561       -1.10102478199652
C            5.36670354671185        1.09116783237652       -1.80161937839427
H            4.87507704749248        2.22758539050037        0.11706847257391
C            5.22073497400352        1.20487532888245       -3.27665169617099
H            5.01961777722343        0.10933986356289       -1.46668798314456
H            6.42568090389466        1.15673295274354       -1.53402628645637
C            5.74559437573308        2.27395582530150       -3.98620121095074
C            6.55361256783812        3.41183251643043       -3.49494181539025
C            6.87275236509102        4.41646954472738       -4.55254116975491
C            6.42237781316883        4.27870625944123       -5.82444868002643
C            5.63822207814650        3.18105946847111       -6.23739798917426
C            5.30351044490384        2.18895663415058       -5.31408389741394
H            7.00149448966405        3.27876001236479       -2.27383732149808
H            7.44865802919635        5.27864363252208       -4.26762697852672
H            6.66361723685231        5.03743127281169       -6.55050586352352
H            5.28075604005854        3.10528077337077       -7.24791233153116
N            4.51138461592402        1.04484200352210       -5.40156228719845
C            4.45004991582606        0.46177046872961       -4.16829000742133
H            4.01065097361695        0.75746563858965       -6.24430838761062
H            3.86588049127057       -0.40961521027862       -3.91944654501952
