48
Energy =
C     2.4286048    4.8173804    1.7006785 
C     2.0168322    3.6713019    1.1026339 
C     1.5196884    5.7531394    2.0827844 
C     0.2037226    5.5383286    1.8564268 
C    -0.2135791    4.3972457    1.2516497 
C     0.6909130    3.4510616    0.8774415 
H     2.7573814    2.9401473    0.7878875 
H    -0.5107049    6.2964920    2.1591057 
H    -1.2746613    4.2512243    1.0666421 
H     3.4869738    4.9875199    1.8656088 
C     0.2293800    2.1915255    0.1728261 
C     0.3067414    2.3371365   -1.3645243 
H    -0.8190830    1.9618564    0.4667425 
H     0.8368632    1.3225301    0.5096272 
C     1.7441842    2.4379516   -1.8555599 
O     1.9089500    6.9419751    2.7083251 
H     2.9129210    7.0513825    2.8052985 
O     2.2515126    3.7071837   -2.0976174 
N    -0.4109717    1.2238564   -2.0126901 
H    -0.1743967    3.3011990   -1.6641379 
H    -0.1764174    0.3091843   -1.5594274 
H    -1.4427563    1.3626967   -1.8927949 
N     2.6224289    1.2970704   -1.7414837 
C     4.0784279    1.3138240   -2.0446958 
H     2.1673534    0.3959444   -1.4839453 
C     4.6469409    2.6190938   -2.6135400 
O     5.5626274    3.3395259   -1.8529334 
O     4.3626312    3.0515291   -3.9095777 
H     3.5682394    2.5574343   -4.2859067 
C     4.4236499    0.1221727   -2.9718233 
H     4.6235795    1.1701416   -1.0850241 
C     4.2088563   -1.2157607   -2.2967219 
H     5.4923725    0.1842983   -3.2821390 
H     3.8293179    0.1834311   -3.9080231 
C     3.1401839   -2.0226606   -2.4119337 
C     2.0066180   -1.8728408   -3.1464293 
C     1.0518861   -2.8436927   -3.0707483 
C     1.2405633   -3.9372080   -2.2718227 
C     2.3846708   -4.0655736   -1.5417041 
C     3.3149987   -3.0922598   -1.6337956 
H     1.8481924   -1.0016714   -3.7756701 
H     0.1355321   -2.7466045   -3.6485288 
H     0.4750050   -4.7072083   -2.2174258 
H     2.5483179   -4.9249368   -0.9002365 
N     4.5568895   -3.0246821   -0.9475768 
C     5.0703942   -1.7764721   -1.4302741 
H     4.9775069   -3.7005941   -0.2692220 
H     6.0229100   -1.3455017   -1.1294993 
