48
Energy =
C     4.8098189    3.4959524    4.0843618 
C     4.4922102    2.5734797    3.1415744 
C     4.0477367    3.6195999    5.2037762 
C     2.9708938    2.8184526    5.3708354 
C     2.6473246    1.8947093    4.4305524 
C     3.4095486    1.7648012    3.3103036 
H     5.1099508    2.4900484    2.2493670 
H     2.3706211    2.9286669    6.2671888 
H     1.7747806    1.2648021    4.5818297 
H     5.6739034    4.1352417    3.9384676 
C     3.0488032    0.7500308    2.2489443 
C     2.3890048    1.4102833    1.0156942 
H     2.3766718   -0.0382651    2.6577950 
H     3.9788635    0.2204497    1.9426372 
C     2.3152139    0.4295656   -0.1404182 
O     4.3467821    4.5601427    6.1951627 
H     5.1652780    5.1240238    5.9926378 
O     1.5790963   -0.7437734   -0.0240453 
N     1.0490777    1.9202741    1.3503549 
H     3.0234817    2.2601864    0.6649509 
H     0.4547629    1.1428791    1.7268571 
H     1.1218943    2.6559722    2.0918862 
N     2.9602284    0.7214023   -1.3830322 
C     4.4315687    0.6454656   -1.4133778 
H     2.3656673    0.9472634   -2.2102838 
C     5.0387019    2.0345757   -1.5398639 
O     5.7534261    2.5556929   -0.4684822 
O     4.8722522    2.8187875   -2.6805874 
H     4.2898522    2.3645097   -3.3663882 
C     4.8801738   -0.2982451   -2.5490916 
H     4.8282009    0.2377742   -0.4528318 
C     4.6553428   -1.7465559   -2.1709001 
H     5.9660611   -0.1521604   -2.7518655 
H     4.3502202   -0.0601760   -3.4957963 
C     3.5551595   -2.4857646   -2.3898442 
C     2.4004031   -2.1666599   -3.0286206 
C     1.4197376   -3.1115020   -3.1079685 
C     1.6061424   -4.3484620   -2.5557872 
C     2.7743091   -4.6477241   -1.9202691 
C     3.7288827   -3.6959802   -1.8546010 
H     2.2472193   -1.1854219   -3.4626975 
H     0.4821662   -2.8770923   -3.6061022 
H     0.8176397   -5.0942721   -2.6181656 
H     2.9367354   -5.6221351   -1.4723648 
N     5.0032960   -3.8016692   -1.2356358 
C     5.5350298   -2.4933783   -1.4795231 
H     5.4344011   -4.6155812   -0.7398828 
H     6.5073120   -2.1512272   -1.1317506 
