48
Energy =
C     1.7479054    3.6187141    4.5913446 
C     1.9335220    3.3233159    3.2800739 
C     1.0741895    2.7556246    5.3977093 
C     0.5912681    1.6008745    4.8853181 
C     0.7739195    1.3000423    3.5745627 
C     1.4434758    2.1629225    2.7622963 
H     2.4791547    4.0212093    2.6497152 
H     0.0579031    0.9201101    5.5397012 
H     0.3819591    0.3651405    3.1820443 
H     2.1413655    4.5461343    4.9930649 
C     1.6637046    1.8191338    1.3061246 
C     2.8238635    0.8136722    1.1169855 
H     1.8600371    2.7408560    0.7108699 
H     0.7234946    1.3871566    0.8941664 
C     2.8871599    0.3274113   -0.3177136 
O     0.8659931    3.0293001    6.7534959 
H     1.2568519    3.9136580    7.0596661 
O     2.4467182   -0.9530584   -0.6283703 
N     4.1068096    1.4118289    1.5305983 
H     2.6254079   -0.1013116    1.7267598 
H     4.1880367    2.3920862    1.1651883 
H     4.1349318    1.4788883    2.5757672 
N     3.1050997    1.2520618   -1.3845414 
C     4.5009957    1.5673472   -1.7313216 
H     2.2831987    1.6654881   -1.8803703 
C     4.7384764    3.0697235   -1.7605594 
O     3.6689553    3.9431849   -1.9086155 
O     6.0265135    3.6005417   -1.7090935 
H     6.7320109    2.8908073   -1.5793059 
C     4.8571557    0.9004003   -3.0760741 
H     5.1928194    1.1711788   -0.9513246 
C     3.9497303    1.3458673   -4.2056609 
H     4.8027696   -0.2036044   -2.9563326 
H     5.9124288    1.1284885   -3.3443913 
C     2.8390002    0.7281880   -4.6417238 
C     2.2548232   -0.4220378   -4.2155773 
C     1.1030744   -0.8278913   -4.8223673 
C     0.5554700   -0.0861565   -5.8321213 
C     1.1549275    1.0686731   -6.2387833 
C     2.2952373    1.4481551   -5.6248660 
H     2.6747536   -1.0070388   -3.4020057 
H     0.6150172   -1.7429898   -4.4948069 
H    -0.3653010   -0.4147341   -6.3075983 
H     0.7283994    1.6743755   -7.0311403 
N     3.0551402    2.6212881   -5.8773704 
C     4.1032548    2.4839440   -4.9066218 
H     2.8956041    3.3742429   -6.5861140 
H     4.8791950    3.2279553   -4.7222796 
