48
Energy =
C     4.7903958   -2.3178219    0.3152490 
C     3.6475679   -1.7994960    0.8329693 
C     5.9986801   -1.8379316    0.7124594 
C     6.0557509   -0.8465287    1.6306952 
C     4.9163021   -0.3251774    2.1521634 
C     3.7044687   -0.8013572    1.7571292 
H     2.6832484   -2.1718910    0.4882267 
H     7.0263912   -0.4722623    1.9384530 
H     4.9823151    0.4797041    2.8800021 
H     4.7355237   -3.1085445   -0.4255605 
C     2.4320457   -0.1771720    2.2857086 
C     2.0562268    1.0953381    1.4938444 
H     2.5649416    0.0748218    3.3609906 
H     1.5907856   -0.9061693    2.2389149 
C     1.8349015    0.8018794    0.0117541 
O     7.1933790   -2.3386088    0.1874024 
H     7.0687247   -3.0953974   -0.4762407 
O     1.0501931   -0.2820513   -0.3723616 
N     0.8613013    1.7170638    2.0828714 
H     2.8992654    1.8210059    1.5629328 
H     0.0487767    1.0565229    2.0115348 
H     1.0199943    1.9146894    3.0989112 
N     2.3182341    1.6942058   -1.0028846 
C     3.7612644    1.4813559   -1.2747488 
H     2.1070946    2.6696172   -0.6862600 
C     4.4609210    2.7448959   -1.7774588 
O     3.7219452    3.8056012   -2.2857566 
O     5.8528077    2.8507235   -1.7586238 
H     6.2941604    2.0324665   -1.3648054 
C     3.9177332    0.3219215   -2.2824434 
H     4.3034743    1.2029439   -0.3427833 
C     3.1995988    0.5940201   -3.5887041 
H     3.4942195   -0.6037766   -1.8365995 
H     4.9924984    0.1093712   -2.4678183 
C     3.7066688    1.1687851   -4.6918343 
C     4.9594390    1.6316881   -4.9390223 
C     5.2166055    2.1892136   -6.1570099 
C     4.2300239    2.2747496   -7.0999456 
C     2.9790810    1.8055322   -6.8293616 
C     2.7491982    1.2582924   -5.6173668 
H     5.7424133    1.5794706   -4.1889465 
H     6.2091856    2.5765533   -6.3744526 
H     4.4413810    2.7262813   -8.0659770 
H     2.1825997    1.8729175   -7.5625172 
N     1.5228226    0.7278143   -5.1354773 
C     1.8997406    0.3285967   -3.8103433 
H     0.5990612    0.6413851   -5.6178579 
H     1.2174209   -0.0921463   -3.0722863 
