48
Energy =
C     2.3605355    0.2699759    3.2424291 
C     1.7376494   -0.3001530    2.1754890 
C     3.3601617   -0.3981440    3.8859446 
C     3.7228379   -1.6178570    3.4635860 
C     3.1159710   -2.1914632    2.4116757 
C     2.1159655   -1.5405906    1.7505732 
H     0.9441846    0.2363783    1.6597239 
H     4.5034444   -2.1487305    3.9713623 
H     3.4625164   -3.1753813    2.1319526 
H     2.0615879    1.2571576    3.5785226 
C     1.4400283   -2.1791987    0.5547571 
C     2.0882305   -1.8011147   -0.8017714 
H     0.3660569   -1.8932877    0.5412450 
H     1.4553577   -3.2847706    0.6770886 
C     2.1801657   -0.2950742   -0.9963531 
O     4.0363496    0.1394881    4.9812920 
H     3.6947452    1.0526162    5.2578934 
O     1.0043833    0.4470344   -1.0464282 
N     3.3896888   -2.4716807   -0.9816294 
H     1.4058133   -2.1584033   -1.6049296 
H     4.0423043   -2.1621153   -0.2232137 
H     3.2684551   -3.5014152   -0.8219641 
N     3.4134039    0.4006833   -0.7619825 
C     4.1211578    0.9617302   -1.9222948 
H     3.7411186    0.5348407    0.2205296 
C     3.2577235    1.9685620   -2.6875387 
O     2.5291651    1.5619141   -3.8008197 
O     3.1770587    3.3051280   -2.2901024 
H     3.6493246    3.4674044   -1.4123686 
C     4.6629742   -0.1854684   -2.8057650 
H     4.9987596    1.5234662   -1.5329942 
C     5.6407636    0.3110873   -3.8502956 
H     3.8230316   -0.7447283   -3.2698805 
H     5.1840704   -0.9237044   -2.1541290 
C     5.4325954    0.4367033   -5.1727116 
C     4.3354678    0.1459530   -5.9195130 
C     4.3847871    0.3741773   -7.2631738 
C     5.5177885    0.8802648   -7.8372377 
C     6.6088258    1.1613742   -7.0703877 
C     6.5350994    0.9285063   -5.7427681 
H     3.4299782   -0.2537111   -5.4735850 
H     3.5155125    0.1553140   -7.8793112 
H     5.5476837    1.0611264   -8.9090919 
H     7.5154305    1.5641184   -7.5098901 
N     7.5512146    1.1521683   -4.7764273 
C     6.8908460    0.7273894   -3.5791848 
H     8.5206510    1.5246710   -4.9005872 
H     7.3442932    0.7475583   -2.5910370 
