48
Energy =
C    -2.9009597   -0.8444888   -1.7929916 
C    -2.6039464    0.2887485   -1.1078618 
C    -2.3959936   -1.0416143   -3.0402277 
C    -1.5971789   -0.1016322   -3.5935909 
C    -1.2975703    1.0333511   -2.9140273 
C    -1.8015570    1.2370731   -1.6652245 
H    -3.0078462    0.4280287   -0.1086746 
H    -1.1971706   -0.2710507   -4.5867973 
H    -0.6482599    1.7702185   -3.3780245 
H    -3.5396009   -1.5940256   -1.3388447 
C    -1.4400496    2.4841058   -0.8853158 
C    -0.3690170    2.2000422    0.1961179 
H    -2.3578351    2.8833095   -0.3998951 
H    -1.0873978    3.2851982   -1.5722014 
C     0.8784908    1.5482964   -0.3735729 
O    -2.6813678   -2.1983787   -3.7733342 
H    -3.2765283   -2.8580007   -3.2844725 
O     1.1748497    0.2287199   -0.0469207 
N    -0.0337918    3.4427253    0.9087243 
H    -0.7796137    1.4652718    0.9283673 
H     0.3243732    4.1582835    0.2302558 
H    -0.8952647    3.8388690    1.3527523 
N     1.6726830    2.2175019   -1.3607153 
C     3.1267920    2.2809579   -1.1265086 
H     1.2061890    2.7388430   -2.1362290 
C     3.7311098    3.5927763   -1.6187940 
O     3.0673799    4.3650873   -2.5654558 
O     4.9883436    4.0151682   -1.1829117 
H     5.3888232    3.3906005   -0.4984990 
C     3.8025434    1.0562978   -1.7855481 
H     3.3332095    2.2559620   -0.0314162 
C     3.3545413    0.8457432   -3.2179859 
H     3.5383564    0.1486511   -1.1970366 
H     4.9096732    1.1414143   -1.7382135 
C     3.8753070    1.3997947   -4.3246055 
C     4.9297628    2.2438060   -4.4659605 
C     5.2529026    2.6736802   -5.7194613 
C     4.5278913    2.2566088   -6.8013603 
C     3.4736320    1.4083236   -6.6359280 
C     3.1722443    0.9984459   -5.3860081 
H     5.5038511    2.5837013   -3.6092149 
H     6.0875684    3.3572074   -5.8569415 
H     4.7899610    2.6065227   -7.7967735 
H     2.8858296    1.0703383   -7.4826141 
N     2.1172649    0.1283007   -5.0005720 
C     2.3008542    0.0906245   -3.5790393 
H     1.3953984   -0.3440653   -5.5917094 
H     1.6594903   -0.4533129   -2.8866028 
