48
 energy: -9.062194750522 gnorm: 0.000678797550 xtb: 6.6.0 (2ccbbd7)
C            5.67880715077055        4.62780480211581        3.28707901103512
C            5.15920471428885        4.10121109075123        2.12812342172675
C            4.83538512427028        5.10261747729323        4.29251229616664
C            3.45763445414974        5.02875415844169        4.08912245445453
C            2.94574174932066        4.50002299386921        2.92835025839952
C            3.78739350796988        4.03289811322092        1.92981674775827
H            5.81856766324101        3.73537727893034        1.35956459812887
H            2.80749176604377        5.39353970796972        4.86422794096487
H            1.88008607257511        4.44255461503781        2.78550481426771
H            6.74324212289700        4.67857809372973        3.43048568205126
C            3.22208391931845        3.42146405666980        0.68719520173101
C            2.70098158809834        1.99814761450668        0.90879772624626
H            3.98452307225599        3.41775930032996       -0.09533751571860
H            2.41356660442188        4.05289265787795        0.30283632225546
C            1.98896615794102        1.47458876504084       -0.32093790518418
O            5.32569892069052        5.63359681225490        5.47050851361267
H            6.30720896541964        5.61721799660172        5.46481236123596
O            0.78928257050671        1.66057823573468       -0.42116038587759
N            3.72607298826751        1.07276748689120        1.37562166923528
H            1.93884062190532        2.03416285786306        1.70444673077353
H            4.37567400106381        0.84947332163770        0.63514581939109
H            4.25309795738052        1.48001905267988        2.13782665816233
N            2.69205073297655        0.84847390188838       -1.35207962079313
C            3.87417933367688        1.46891552974981       -1.97668529309653
H            2.11468956590801        0.45664172717309       -2.09252544759201
C            3.50813730929797        2.81595034888207       -2.53920476594952
O            4.49408150549033        3.71618882025618       -2.81212982832499
O            2.17178756315827        3.10641586303085       -2.75654801949105
H            1.59732956463813        2.63283288458757       -2.10093141736450
C            4.47865534865150        0.53088762392672       -3.04719067529953
H            4.62279217299014        1.61987961150165       -1.19038310900332
C            5.96902498067117        0.43569761283165       -2.99916047485442
H            4.15918169548406        0.85641883045506       -4.04247392818808
H            4.06262098823401       -0.47351546624190       -2.91351177310810
C            6.88690377617148        1.51607909672417       -2.86277120138798
C            6.70789535620810        2.89657888482040       -2.73693032569390
C            7.80186148050016        3.70041202442627       -2.62184579058764
C            9.09880714497902        3.15885399182093       -2.62914535667315
C            9.30236120456794        1.81075927794023       -2.75256220665782
C            8.18607683195260        0.97200903895235       -2.87092475758864
H            5.55381426601805        3.32050053434737       -2.76629026839013
H            7.66728040143818        4.76531038565084       -2.53158382041393
H            9.94554733162973        3.81916903676444       -2.54112590525569
H           10.29070260740685        1.38745135068345       -2.76295689350514
N            8.05583791035715       -0.39835416742977       -3.01224638208767
C            6.72004352312620       -0.71072644996100       -3.09319887578064
H            8.83615888938728       -1.05561431584201       -3.06570154768264
H            6.32796615380144       -1.70799239121916       -3.21082183989996
