48
Energy =
C    -2.5135033   -2.5015970   -0.1670432 
C    -1.1965374   -2.1737289   -0.1755154 
C    -3.4241369   -1.6597987    0.3913586 
C    -3.0095425   -0.4939479    0.9371590 
C    -1.6940076   -0.1611390    0.9314550 
C    -0.7780995   -1.0019461    0.3776878 
H    -0.4817869   -2.8545473   -0.6297350 
H    -3.7450881    0.1700509    1.3775351 
H    -1.3797595    0.7817027    1.3719520 
H    -2.8364493   -3.4378650   -0.6091092 
C     0.6857405   -0.6214836    0.3556239 
C     1.0024899    0.4095419   -0.7526320 
H     1.3236703   -1.5235882    0.2308594 
H     0.9548026   -0.1908376    1.3466654 
C     2.4102905    0.9527416   -0.5980891 
O    -4.7885061   -1.9674390    0.4158863 
H    -5.0169120   -2.8584182   -0.0108507 
O     2.5925593    2.1510460   -0.3399325 
N     0.8147121   -0.1787370   -2.0890883 
H     0.3227363    1.2884625   -0.6434331 
H     1.3545048   -1.0719949   -2.1620832 
H    -0.1971082   -0.4035478   -2.2316209 
N     3.5595886    0.1395276   -0.8879840 
C     4.5691570    0.8435977   -1.6936578 
H     3.6368137   -0.8525911   -0.5724639 
C     4.4331932    2.3589199   -1.4752417 
O     5.3016370    3.2472905   -2.1007192 
O     3.5505871    2.7979021   -0.7187498 
H     3.4232408    2.3784457    0.1780648 
C     4.3608872    0.4238917   -3.1625594 
H     5.5850563    0.5534121   -1.3487392 
C     5.4485283    0.9390025   -4.0797296 
H     3.3561565    0.7573256   -3.5044515 
H     4.3488673   -0.6863493   -3.2206704 
C     5.3870247    2.0025636   -4.8986388 
C     4.3738664    2.8810242   -5.1169488 
C     4.5724212    3.8902719   -6.0125057 
C     5.7658259    4.0062504   -6.6697782 
C     6.7698158    3.1150955   -6.4328873 
C     6.5499995    2.1255458   -5.5417364 
H     3.4308387    2.8048521   -4.5841348 
H     3.7798612    4.6115836   -6.1964486 
H     5.9172513    4.8169060   -7.3779711 
H     7.7245469    3.1968881   -6.9409126 
N     7.4595532    1.1060246   -5.1509300 
C     6.6679548    0.3845550   -4.1982664 
H     8.4367411    0.9289051   -5.4781976 
H     7.0114068   -0.4890964   -3.6498955 
