48
Energy =
C     0.8436508   -2.8624654    2.7683675 
C     0.3088455   -1.8628023    2.0223737 
C     1.7751957   -2.5835963    3.7177732 
C     2.1574731   -1.3037034    3.9212378 
C     1.6231337   -0.3004359    3.1809866 
C     0.7120185   -0.5721791    2.2046994 
H    -0.4518101   -2.1067306    1.2863484 
H     2.8944103   -1.0908570    4.6876922 
H     1.9319688    0.7217702    3.3794336 
H     0.5193010   -3.8850197    2.6078592 
C     0.0972504    0.5527362    1.3830068 
C     0.8444679    0.9414087    0.0701891 
H     0.0047309    1.4589639    2.0225335 
H    -0.9477681    0.2771245    1.1197666 
C     2.1684423    1.6708554    0.2768610 
O     2.3462871   -3.5905456    4.5028417 
H     2.0098176   -4.5223128    4.2864508 
O     3.0486367    1.3121213    1.2906788 
N     1.0087467   -0.1939619   -0.8603995 
H     0.1896828    1.7031302   -0.4152647 
H     0.6432324   -1.0910217   -0.4758276 
H     0.4746601   -0.0107847   -1.7420580 
N     2.5926044    2.6592348   -0.6740497 
C     3.9292256    2.4713235   -1.2711269 
H     1.9327784    3.4154146   -0.9647946 
C     4.4155785    3.7401423   -1.9614600 
O     5.6131499    4.3169353   -1.5598617 
O     3.7149318    4.3216183   -3.0211034 
H     2.8516635    3.8367993   -3.2121133 
C     3.9066038    1.2655936   -2.2384219 
H     4.6707453    2.2835329   -0.4562851 
C     5.3035570    0.8869394   -2.6720019 
H     3.2765094    1.4892439   -3.1262119 
H     3.4379275    0.3867742   -1.7457411 
C     6.1646100    0.1067900   -2.0006586 
C     6.0087895   -0.5453196   -0.8194789 
C     7.0584081   -1.2709175   -0.3377943 
C     8.2350724   -1.3291492   -1.0328499 
C     8.3699358   -0.6597479   -2.2132808 
C     7.3159539    0.0481797   -2.6709644 
H     5.0789275   -0.4901438   -0.2585979 
H     6.9600546   -1.8001483    0.6072310 
H     9.0685834   -1.9054423   -0.6392995 
H     9.2992622   -0.6868404   -2.7718468 
N     7.2543854    0.8309511   -3.8554125 
C     5.9191273    1.3502435   -3.7735427 
H     7.9838133    0.9787361   -4.5901346 
H     5.4859773    2.0623273   -4.4758349 
