48
Energy =
C    -0.9879429    0.4786176    3.8440976 
C     0.2887026    0.9386287    3.8241407 
C    -1.2776632   -0.7546483    3.3505858 
C    -0.2867281   -1.5204474    2.8420851 
C     0.9908659   -1.0662902    2.8200798 
C     1.2890685    0.1703382    3.3078921 
H     0.5035051    1.9271598    4.2214662 
H    -0.5283493   -2.5033803    2.4532331 
H     1.7699234   -1.7043636    2.4143407 
H    -1.7764993    1.0996769    4.2556862 
C     2.7142020    0.6919278    3.2758541 
C     3.0888890    1.4208325    1.9573035 
H     3.4222718   -0.1505510    3.4474595 
H     2.8776775    1.3856315    4.1296836 
C     3.1636323    0.4828026    0.7517283 
O    -2.5820657   -1.2580818    3.3553094 
H    -3.2675602   -0.6257574    3.7540054 
O     3.6203336   -0.8187769    0.9435640 
N     2.1924636    2.5675465    1.7216532 
H     4.1277134    1.8049108    2.0802039 
H     1.2130341    2.2349426    1.5541269 
H     2.1791717    3.1883721    2.5655270 
N     3.1204936    0.9839566   -0.6000811 
C     4.4496067    1.0004805   -1.2632775 
H     2.5859692    1.8773948   -0.6761219 
C     5.1825985    2.3582950   -1.2527567 
O     6.3522660    2.4868407   -1.9890809 
O     4.7794945    3.4694895   -0.5102759 
H     4.0213169    3.2847674    0.1183046 
C     4.2220690    0.4877779   -2.7034003 
H     5.1471150    0.2908686   -0.7572189 
C     5.4846610   -0.0474355   -3.3494378 
H     3.7524863    1.2828240   -3.3197077 
H     3.4855449   -0.3470345   -2.6743363 
C     6.2054538    0.5167677   -4.3340238 
C     6.0220109    1.6914721   -4.9918797 
C     6.9118713    2.0355034   -5.9666335 
C     7.9594828    1.2105165   -6.2684887 
C     8.1257077    0.0373475   -5.5948936 
C     7.2335211   -0.2806219   -4.6334426 
H     5.2037330    2.3597402   -4.7445462 
H     6.7918877    2.9757070   -6.4994467 
H     8.6666953    1.4945124   -7.0436752 
H     8.9540227   -0.6261922   -5.8185558 
N     7.2284110   -1.4469087   -3.8224053 
C     6.0651431   -1.2150231   -3.0181385 
H     7.8886835   -2.2576851   -3.8197592 
H     5.7047571   -1.8931266   -2.2472127 
