48
 energy: -9.199573525946 gnorm: 0.000960266477 xtb: 6.6.0 (2ccbbd7)
C            0.47457756023640        4.94730242221332       -1.85578629115918
C            1.32319994496611        3.94148532029210       -2.24972565967828
C           -0.65236318220537        5.26119497787505       -2.61651006061335
C           -0.89092137105463        4.52546320239026       -3.77701271418877
C           -0.03830489916787        3.51841492889261       -4.16175170645465
C            1.08504757048275        3.21403036523150       -3.40679304082340
H            2.17517293110283        3.68670317493430       -1.64273576206657
H           -1.76167000792369        4.76487656858991       -4.36117496423415
H           -0.23758969612517        2.95709794762342       -5.05844786077004
H            0.66805798167862        5.49593953075856       -0.95113653742735
C            2.01034247153748        2.11517707966518       -3.80935391202801
C            1.84781047916125        0.83176167710236       -2.99834205037756
H            3.16042279225700        2.54650136488339       -3.64618222474799
H            1.92428488623393        1.91569643917862       -4.87939951334721
C            2.10758212348341        1.08240958197623       -1.52939322150539
O           -1.52441748040133        6.26953867811215       -2.25329787729515
H           -1.23206576299251        6.67877423534412       -1.41053439949145
O            1.13654492082089        1.25985688026638       -0.82025951885027
N            0.51647102314981        0.25712719655821       -3.15000939447361
H            2.55188256507506        0.06969409683480       -3.35511289740751
H           -0.10980362052057        0.74147572920665       -2.51180298513944
H            0.16871604993327        0.37705937328609       -4.09418760321667
N            3.37996125685351        1.15444631171939       -0.98995481105080
C            4.67318894852340        1.26083170907819       -1.70121575812418
H            3.44075651123945        1.46095802382144       -0.02111698626318
C            4.87915526078709        2.65092636253266       -2.24893112565840
O            5.59276468889629        3.42302188063848       -1.64665675888263
O            4.21226998388811        3.00475386185870       -3.46589217434259
H            4.33453296909719        4.00040957210375       -3.67976797245334
C            4.95071938037267        0.17881250733598       -2.75259941640279
H            5.44680994978214        1.14744277584346       -0.92541897858848
C            4.49661751708914       -1.19900967322763       -2.38612481437413
H            6.02271713416152        0.15221715867510       -2.97756823229135
H            4.48348117872445        0.47502550736016       -3.69605079832490
C            4.46012555230765       -1.82289361345593       -1.09895232344447
C            4.79610012447073       -1.40021162188056        0.20083570012202
C            4.62738560760429       -2.26616855272886        1.24550799418570
C            4.13149905785170       -3.56325260731949        1.04305526343916
C            3.80233711593097       -4.00353877385873       -0.20845263745175
C            3.96717301272471       -3.12985411058391       -1.29052219675305
H            5.17503351129665       -0.40984046552514        0.36871353570722
H            4.87628027812056       -1.94790892324550        2.24424026111306
H            4.00853769797238       -4.22001639597962        1.88840696936447
H            3.42217191581985       -4.99508619765252       -0.37644162533327
N            3.73261337799877       -3.29679944087983       -2.64216990948884
C            4.05791112079134       -2.13428526814919       -3.29176620442272
H            3.37541528470373       -4.15285923155110       -3.07039683862255
H            3.97639089412630       -1.98297885372407       -4.35596911454434
