48
 energy: -9.282885629132 gnorm: 0.000504014771 xtb: 6.6.0 (2ccbbd7)
C           -0.44373748281732       -1.31382037211702        4.03849082791318
C           -0.72423836720381       -0.60799001699032        2.89243041069634
C            0.84414492874878       -1.31591367601889        4.57492277171348
C            1.83316716945382       -0.58523674833141        3.91768207536005
C            1.54256930597230        0.12017826734926        2.77502905701196
C            0.26134652618992        0.12265012726901        2.24389657564667
H           -1.72104496780333       -0.61934320316299        2.48616929138079
H            2.83009219214257       -0.59742230768130        4.32082010751590
H            2.32397163709528        0.64527182178143        2.25180991290103
H           -1.21620194036992       -1.87555724037431        4.53234764991937
C           -0.04295384764222        0.85773841344179        0.97430905062185
C            0.44673482344883        0.13353831632082       -0.29064741182080
H            0.40715898177226        1.85482775439027        1.01955039099350
H           -1.12367757734591        1.02058607640178        0.90941603554763
C            1.94861171986806        0.20202679391148       -0.40614447903361
O            1.15884370198532       -2.01711263139493        5.72325936676013
H            0.36207114293550       -2.47756138076950        6.06474597189876
O            2.61199476183087       -0.56434259701664        0.25909787088267
N            0.06209866359812       -1.26911812543847       -0.31409200946716
H            0.01471449887964        0.61391673229733       -1.18281234492204
H            0.72795944607820       -1.76806559284194        0.26789565203228
H           -0.86247264548126       -1.39705223921657        0.07809995101758
N            2.50246423923725        1.13533060878006       -1.25074961124007
C            3.94446666432836        1.33104912280131       -1.27760182926341
H            1.93888056605279        1.89942859764580       -1.62785958576477
C            4.28253240388893        2.79606892982053       -1.45527633851442
O            5.00040915752266        3.31336207330239       -0.62661110889677
O            3.76265386248749        3.41370494780347       -2.54330674432351
H            3.22390919797328        2.79067415237390       -3.07821889154080
C            4.63181374739551        0.46696646907258       -2.33545932676171
H            4.30559920472282        1.02861993925103       -0.28294783552543
C            4.46437427982499       -0.99475312764022       -2.09485670710651
H            5.69865324144306        0.71113060149247       -2.37099165919003
H            4.23231095712768        0.71913866397304       -3.32123721671884
C            3.34365608742226       -1.79185908259839       -2.47341141187866
C            2.16280658422808       -1.50508636990388       -3.17933695090072
C            1.23014620443889       -2.49375296853944       -3.32595523352481
C            1.43713968704899       -3.77377749115294       -2.78693768646060
C            2.57789918052655       -4.07498075805030       -2.09466940012952
C            3.54515481618154       -3.07553240511461       -1.93107493133839
H            1.99873222420415       -0.51574075495252       -3.56750226083459
H            0.31408749635862       -2.28573234118467       -3.85339407254938
H            0.67919287187809       -4.52850006478162       -2.91614381603213
H            2.73975604707388       -5.04905819993957       -1.66920661388387
N            4.75581941342855       -3.05843066573574       -1.26135156873148
C            5.29013401123165       -1.79664653515031       -1.34610750495886
H            5.12197176937554       -3.83230329498829       -0.70344463839195
H            6.20184345061401       -1.47889848889024       -0.86600421105845
