48
Energy =
C    -1.1061593   -0.9942962   -3.2426134 
C    -0.9911162   -0.4953706   -1.9934549 
C    -0.1076356   -1.7353603   -3.7742802 
C     1.0122519   -1.9654775   -3.0573874 
C     1.1792719   -1.4481095   -1.7829166 
C     0.1319318   -0.7178288   -1.2560923 
H    -1.8132054    0.0856123   -1.5833443 
H     1.7595570   -2.5756710   -3.5461110 
H     3.6429847   -1.7319784    0.1757572 
H    -2.0084199   -0.8059827   -3.8142479 
C     0.1893494   -0.1721817    0.1641250 
C     0.8756776    1.2105828    0.3012889 
H     0.6887203   -0.9051344    0.8337644 
H    -0.8417781   -0.0897618    0.5732653 
C     2.3638139    1.1571257    0.0102795 
O    -0.2054577   -2.2772215   -5.0614566 
H    -1.0739358   -2.0578354   -5.5367960 
O     3.2334699    0.9400097    1.0774498 
N     0.1852369    2.2365339   -0.4999302 
H     0.8156911    1.5111938    1.3747922 
H     0.1872938    1.9727363   -1.5134299 
H    -0.8164053    2.2995080   -0.2018431 
N     2.8230715    0.9949999   -1.3443236 
C     4.2759177    0.7329598   -1.4772797 
H     2.5635378    1.8734371   -1.8531808 
C     5.0811824    2.0323386   -1.5707051 
O     5.3138074    2.6082452   -2.8139071 
O     5.5736144    2.6768700   -0.4379392 
H     5.2329027    2.2604539    0.4174617 
C     4.4789683   -0.1512661   -2.7300553 
H     4.7013759    0.1850361   -0.6067756 
C     4.2327971   -1.6400452   -2.5147063 
H     5.5236283   -0.0133354   -3.0857018 
H     3.8159940    0.2050763   -3.5509086 
C     4.8302646   -2.6263356   -3.2121372 
C     5.7487586   -2.5545894   -4.2136982 
C     6.1977498   -3.7161232   -4.7701048 
C     5.7266403   -4.9204199   -4.3284753 
C     4.8022838   -4.9700004   -3.3290213 
C     4.3776885   -3.8076916   -2.7913022 
H     6.1202625   -1.6040991   -4.5829721 
H     6.9304238   -3.6836548   -5.5734211 
H     6.0854256   -5.8421120   -4.7801615 
H     4.4097621   -5.9164972   -2.9728129 
N     3.4084655   -3.6464331   -1.7712903 
C     3.3389272   -2.2156692   -1.6649262 
H     2.8912509   -4.3747993   -1.2274138 
H     2.3795385   -1.4918972   -0.5163904 
