48
Energy =
C     0.7141385    4.5569953    4.2528307 
C     0.7388028    3.5321914    3.3633903 
C     1.1801354    5.7836210    3.8955637 
C     1.6682972    5.9759870    2.6491140 
C     1.6956802    4.9548763    1.7556457 
C     1.2268595    3.7259634    2.1072438 
H     0.3666073    2.5558866    3.6641396 
H     2.0379360    6.9585784    2.3768414 
H     2.0952360    5.1295275    0.7594074 
H     0.3224625    4.3925298    5.2508308 
C     1.2731595    2.5775936    1.1239005 
C     2.4670711    1.6331035    1.4028426 
H     1.3240488    2.9650637    0.0810927 
H     0.3188871    2.0075415    1.1927215 
C     2.3856341    0.3419624    0.5947458 
O     1.1704838    6.8602139    4.7884064 
H     0.7870372    6.6358351    5.6999807 
O     2.2343465   -0.8589497    1.2754143 
N     3.7542195    2.3266747    1.1981824 
H     2.4044677    1.2887248    2.4651948 
H     3.6765332    3.0598856    0.4540045 
H     3.9985546    2.8505088    2.0727527 
N     2.2579467    0.3230888   -0.8376300 
C     3.5034899    0.7239790   -1.5365557 
H     1.4253250    0.8913241   -1.1122376 
C     3.4443175    2.1555046   -2.0684922 
O     2.2655533    2.6447728   -2.6183778 
O     4.5682388    2.9829329   -2.0670808 
H     5.3844722    2.5403563   -1.6702670 
C     3.7438712   -0.2645644   -2.6952647 
H     4.3830513    0.6792330   -0.8484999 
C     4.1736447   -1.6211590   -2.1798391 
H     4.5322250    0.1260843   -3.3788831 
H     2.8200350   -0.3602825   -3.3084671 
C     3.3791055   -2.6322936   -1.7900852 
C     2.0246790   -2.7269464   -1.7841764 
C     1.4565378   -3.8792413   -1.3260070 
C     2.2414296   -4.9094194   -0.8871990 
C     3.5995247   -4.7925921   -0.9024915 
C     4.1375030   -3.6423259   -1.3597643 
H     1.3991567   -1.9068941   -2.1214209 
H     0.3738568   -3.9745273   -1.3011683 
H     1.7808071   -5.8220505   -0.5175707 
H     4.2365818   -5.5974811   -0.5522320 
N     5.5178479   -3.3179209   -1.4513521 
C     5.4526494   -1.9893688   -1.9846287 
H     6.3516543   -3.8980223   -1.2018825 
H     6.3215205   -1.3666657   -2.1856898 
