48
Energy =
C     0.4058300    7.1024587    1.0196606 
C    -0.1593130    5.8813187    0.8194173 
C     1.7608918    7.2470072    0.9847602 
C     2.5423574    6.1678886    0.7519409 
C     1.9714121    4.9564574    0.5580510 
C     0.6246017    4.7969969    0.5705873 
H    -1.2403626    5.7807055    0.8644867 
H     3.6201534    6.2841545    0.7195916 
H     2.5266480    3.9573260    0.3195636 
H    -0.2278935    7.9613382    1.2124017 
C     0.0137120    3.3995462    0.4129328 
C     0.7268290    2.4543628   -0.6138551 
H    -1.0485003    3.5069772    0.1017775 
H     0.0058544    2.9105511    1.4113295 
C     2.1339238    2.0295083   -0.1672647 
O     2.3709471    8.4894260    1.1852129 
H     1.7177029    9.2468197    1.3521641 
O     3.0736953    3.0293179    0.1022530 
N    -0.1330543    1.2909009   -0.8909906 
H     0.8941105    3.0189016   -1.5628395 
H    -0.4646220    0.8683628    0.0085158 
H    -0.9852136    1.6052431   -1.4128641 
N     2.5098187    0.6639482    0.0347687 
C     3.9567042    0.3809233   -0.0004416 
H     1.7931268   -0.0675548    0.2373917 
C     4.8019265    1.5969865    0.3975046 
O     6.1824101    1.4601015    0.5093944 
O     4.2844432    2.6987644    0.6014662 
H     3.4001353    2.7467182    1.1278199 
C     4.3249489   -0.1097014   -1.4134812 
H     4.1924443   -0.4119866    0.7424707 
C     3.6459061   -1.4210178   -1.7345206 
H     5.4276156   -0.2256690   -1.5093164 
H     4.0228090    0.6629796   -2.1564875 
C     4.0693418   -2.6487903   -1.3978188 
C     5.1923946   -3.0316447   -0.7376862 
C     5.3865460   -4.3621700   -0.5083348 
C     4.4644190   -5.2784507   -0.9337047 
C     3.3412475   -4.8694052   -1.5898465 
C     3.1732318   -3.5480340   -1.8071090 
H     5.9227873   -2.3047748   -0.3939581 
H     6.2784086   -4.6952980    0.0171304 
H     4.6258760   -6.3369264   -0.7456305 
H     2.5974076   -5.5822186   -1.9290379 
N     2.0749720   -2.9150582   -2.4490666 
C     2.4566336   -1.5362758   -2.3508624 
H     1.2190591   -3.3395069   -2.8740080 
H     1.8471446   -0.7005907   -2.6912546 
