48
Energy =
C    -0.5012093   -3.6793676   -2.4493448 
C    -0.8454680   -2.9548411   -3.5592092 
C     0.7254288   -3.4813731   -1.8593792 
C     1.5620427   -2.5875554   -2.3797025 
C     1.2515059   -1.8955842   -3.4329834 
C     0.0429948   -2.0317342   -4.0631898 
H    -1.8172601   -3.1039743   -4.0281003 
H     2.5187950   -2.3440977   -2.0157265 
H     2.0914753   -1.2638720   -3.5929625 
H    -1.1922211   -4.4072327   -2.0338522 
C    -0.3159237   -1.2349310   -5.3097936 
C     0.4164354    0.1156825   -5.5333736 
H    -1.4084074   -1.0193258   -5.2766715 
H    -0.1615792   -1.8876135   -6.1962041 
C     0.5635506    0.9257624   -4.2579548 
O     1.1597428   -4.1669014   -0.7298208 
H     0.4845424   -4.8326829   -0.3675786 
O    -0.5209571    0.9839765   -3.3860617 
N     1.6980569   -0.0589706   -6.2362502 
H    -0.2353964    0.7252072   -6.1982472 
H     2.2643935   -0.7956064   -5.7572437 
H     1.5086000   -0.4091595   -7.2046663 
N     1.5004521    2.0143361   -4.2036042 
C     2.7864850    1.7466965   -3.5343959 
H     1.2500267    2.9317451   -4.6400976 
C     2.9909316    2.6725351   -2.3413828 
O     4.2609413    3.1721830   -2.0620206 
O     1.9568019    2.9636759   -1.4496760 
H     1.0918493    2.4891019   -1.6769967 
C     3.9329032    1.8727134   -4.5657980 
H     2.7888926    0.7241035   -3.1089868 
C     5.1504776    1.0572867   -4.1825642 
H     4.1873045    2.9411877   -4.7224825 
H     3.5920814    1.5059541   -5.5559848 
C     6.3779873    1.5132581   -3.8721103 
C     6.8490604    2.7869862   -3.8030606 
C     8.1560342    2.9812300   -3.4643225 
C     8.9699959    1.9120040   -3.2063901 
C     8.4807088    0.6411912   -3.2855555 
C     7.1797045    0.4749887   -3.6192243 
H     6.2165296    3.6440085   -4.0082932 
H     8.5507467    3.9933834   -3.4014167 
H    10.0128929    2.0775051   -2.9391809 
H     9.1174980   -0.2179223   -3.0879464 
N     6.4782802   -0.7524153   -3.7676925 
C     5.1726443   -0.2877616   -4.1333016 
H     6.7990878   -1.7415903   -3.6370951 
H     4.3262967   -0.9395235   -4.3476499 
