48
Energy =
C     2.9866465    2.3261936    4.3269408 
C     2.8149420    1.1840545    3.6148857 
C     3.9060468    3.2464118    3.9314532 
C     4.6453172    3.0185056    2.8222053 
C     4.4793369    1.8772404    2.1070364 
C     3.5623488    0.9498766    2.5006216 
H     2.0712193    0.4614870    3.9389093 
H     5.3692423    3.7647463    2.5118195 
H     5.0829477    1.7202331    1.2180276 
H     2.3851197    2.5030425    5.2118243 
C     3.3539679   -0.3159878    1.6945260 
C     2.0400521   -0.2889482    0.8744948 
H     3.3245206   -1.1811352    2.3930583 
H     4.2223846   -0.5007737    1.0277971 
C     1.9013709    0.9489490   -0.0147023 
O     4.1139834    4.4293860    4.6481219 
H     3.4952441    4.5458035    5.4430445 
O     1.4356047    2.1261784    0.5555757 
N     1.8985127   -1.5454060    0.1181263 
H     1.1837183   -0.2087367    1.5852533 
H     2.7860265   -1.7652640   -0.3903112 
H     1.7303692   -2.3331339    0.7881973 
N     2.1335610    0.9284495   -1.4353392 
C     3.5758502    0.9822192   -1.7803178 
H     1.6240614    0.1021919   -1.8227667 
C     3.9632582    2.3993781   -2.2109090 
O     4.2982472    2.6703877   -3.5325099 
O     4.0197434    3.4447996   -1.2913746 
H     3.4894685    3.2299653   -0.4584008 
C     3.9036751   -0.0782115   -2.8669140 
H     4.2127510    0.7672874   -0.8963321 
C     5.3969351   -0.2784251   -3.0429437 
H     3.4146231    0.2086015   -3.8233366 
H     3.4682729   -1.0593947   -2.5822630 
C     6.1531371    0.0493572   -4.1065287 
C     5.8085315    0.6362280   -5.2829019 
C     6.7840683    0.8554310   -6.2103624 
C     8.0751381    0.4856032   -5.9562552 
C     8.3993079   -0.1049577   -4.7718214 
C     7.4176028   -0.3086372   -3.8683023 
H     4.7884608    0.9425154   -5.4912206 
H     6.5329399    1.3333813   -7.1544039 
H     8.8467460    0.6668751   -6.7004006 
H     9.4191623   -0.4038899   -4.5546539 
N     7.5457828   -0.9113749   -2.5885428 
C     6.1925706   -0.8550955   -2.1232546 
H     8.3988767   -1.2953629   -2.1207983 
H     5.8605542   -1.2370120   -1.1611823 
