48
Energy =
C    -1.5424282    1.7373865    3.7385581 
C    -0.6670965    2.6559250    3.2495571 
C    -1.8052171    0.5984562    3.0379873 
C    -1.1919575    0.3876377    1.8506839 
C    -0.3216854    1.3072543    1.3685942 
C    -0.0404007    2.4363167    2.0618953 
H    -0.4764019    3.5645536    3.8143180 
H    -1.4046267   -0.5185021    1.2946846 
H     0.2748739    1.2191244    0.3556753 
H    -2.0343892    1.9176030    4.6882612 
C     0.9085655    3.4668643    1.4616537 
C     2.1483593    2.8428870    0.7502908 
H     1.2626377    4.1463755    2.2677131 
H     0.3413918    4.0931223    0.7380865 
C     1.7954388    2.1233925   -0.5675286 
O    -2.6985622   -0.3661381    3.5145883 
H    -3.1188736   -0.1319042    4.4071134 
O     0.8244394    1.1221528   -0.5953765 
N     3.1713497    3.8823797    0.5444282 
H     2.5760268    2.0499873    1.4093028 
H     2.7771604    4.6655111   -0.0322340 
H     3.4675265    4.2869554    1.4642638 
N     2.4565716    2.4414678   -1.7917590 
C     3.8467202    1.9769802   -1.9487406 
H     1.9691338    3.0562062   -2.4822984 
C     4.6552060    2.8905067   -2.8622050 
O     4.0155270    3.6953698   -3.7972763 
O     6.0510839    2.8870317   -2.8335228 
H     6.4207137    2.2816267   -2.1161321 
C     3.8442634    0.5165085   -2.4503955 
H     4.3674688    2.0179366   -0.9656802 
C     3.0832051    0.3537586   -3.7508278 
H     3.3654749   -0.1249708   -1.6764020 
H     4.8847332    0.1434407   -2.5654373 
C     3.5706771    0.4604334   -4.9981200 
C     4.8354467    0.7136833   -5.4235343 
C     5.0675159    0.7791985   -6.7660155 
C     4.0448024    0.5915377   -7.6540074 
C     2.7827203    0.3398946   -7.2045945 
C     2.5779992    0.2806322   -5.8719847 
H     5.6483637    0.8767088   -4.7226897 
H     6.0697145    0.9914462   -7.1306525 
H     4.2370744    0.6509241   -8.7222758 
H     1.9587279    0.1955508   -7.8949935 
N     1.3470224    0.0433655   -5.2038720 
C     1.7618038    0.1154860   -3.8327868 
H     0.3979611   -0.1398842   -5.6031844 
H     1.0929342    0.0218230   -2.9777474 
