48
Energy =
C     5.7644463    7.6479673    0.7012653 
C     5.5955454    6.4740483    0.0411279 
C     4.6963475    8.2799313    1.2572909 
C     3.4646714    7.7320847    1.1485172 
C     3.2891716    6.5589237    0.4895932 
C     4.3545314    5.9242340   -0.0711884 
H     6.4618642    5.9809239   -0.3954357 
H     2.6209043    8.2454170    1.5969619 
H     2.2904541    6.1340559    0.4161804 
H     6.7559049    8.0803730    0.7845063 
C     4.1593299    4.6089994   -0.7897613 
C     4.0496056    3.4195842    0.1994399 
H     4.9839026    4.4413500   -1.5209704 
H     3.2475546    4.6687611   -1.4306127 
C     3.3466425    2.2233538   -0.4317502 
O     4.8368376    9.4891009    1.9457216 
H     5.7880948    9.8394832    1.9766678 
O     1.9618328    2.2503519   -0.5584173 
N     5.3769241    3.0649663    0.7325999 
H     3.3858521    3.7058324    1.0500260 
H     6.0523772    2.8888943   -0.0504390 
H     5.7533376    3.8578369    1.3042787 
N     4.0744960    1.0796306   -0.9067064 
C     4.3347138    0.9608036   -2.3540309 
H     4.4021146    0.3701125   -0.2158008 
C     4.9584737    2.2308616   -2.9101211 
O     4.1566711    3.2086466   -3.4830284 
O     6.3016719    2.5343849   -2.6983475 
H     6.8062282    1.7538369   -2.3025681 
C     3.0441914    0.5694249   -3.1022257 
H     5.0836962    0.1555594   -2.5186295 
C     2.5415751   -0.7878213   -2.6668168 
H     3.2286414    0.5654900   -4.1986729 
H     2.2600561    1.3413220   -2.9321948 
C     2.9787309   -1.9812234   -3.0967165 
C     3.9254653   -2.2789888   -4.0234062 
C     4.1926891   -3.5923736   -4.2771689 
C     3.5191544   -4.5764010   -3.6071451 
C     2.5743155   -4.2527501   -2.6787669 
C     2.3267146   -2.9464816   -2.4470603 
H     4.4610949   -1.4982156   -4.5554064 
H     4.9447359   -3.8580427   -5.0162506 
H     3.7378602   -5.6208210   -3.8147499 
H     2.0326511   -5.0201993   -2.1364879 
N     1.3992834   -2.3984558   -1.5212564 
C     1.6072312   -0.9940167   -1.7226148 
H     0.7442775   -2.8839659   -0.8670047 
H     1.0918825   -0.2096514   -1.1719294 
