48
Energy =
C     3.2110517    5.1598257    1.3711500 
C     2.8877378    4.0131293    0.7228174 
C     2.2929865    5.7823158    2.1568726 
C     1.0539192    5.2548544    2.2828989 
C     0.7231357    4.1110229    1.6314419 
C     1.6416641    3.4779036    0.8510827 
H     3.6294021    3.5375835    0.0893019 
H     0.3282327    5.7648202    2.9072943 
H    -0.2816892    3.7101336    1.7363273 
H     4.2038625    5.5806933    1.2534406 
C     1.2614587    2.2179668    0.1008610 
C     0.6192162    2.5342789   -1.2698936 
H     0.5427901    1.6337061    0.7173717 
H     2.1458669    1.5585020   -0.0313427 
C     1.6066584    3.1633354   -2.2418364 
O     2.5949063    6.9621489    2.8449627 
H     3.5306881    7.3142008    2.6726422 
O     1.8581392    4.5275384   -2.1792354 
N     0.0136815    1.3124570   -1.8282613 
H    -0.1804552    3.3017510   -1.1333388 
H     0.7234114    0.5420087   -1.8611006 
H    -0.7690740    0.9912272   -1.2103969 
N     2.3738124    2.3598896   -3.1471248 
C     3.7738273    2.0794537   -2.7813776 
H     1.9116691    2.0346399   -4.0261703 
C     4.6636986    3.3208002   -2.8807607 
O     5.4503565    3.6767825   -1.7900098 
O     4.7771245    4.0569196   -4.0600053 
H     4.0573211    3.7935497   -4.7164041 
C     4.2934105    0.9244747   -3.6615976 
H     3.8159135    1.7496171   -1.7201612 
C     5.6463531    0.4379679   -3.1928502 
H     4.3568846    1.2519252   -4.7236861 
H     3.5699568    0.0797904   -3.6377044 
C     5.8863381   -0.4365537   -2.2034583 
C     5.0163422   -1.1189606   -1.4149646 
C     5.5235506   -1.9486948   -0.4585491 
C     6.8762063   -2.0789322   -0.3037031 
C     7.7301825   -1.3793317   -1.1040177 
C     7.2041329   -0.5678513   -2.0453178 
H     3.9424000   -1.0125037   -1.5331703 
H     4.8494346   -2.5080639    0.1854669 
H     7.2729352   -2.7401112    0.4626016 
H     8.8054111   -1.4657225   -0.9899013 
N     7.9103381    0.2578496   -2.9607047 
C     6.8254859    0.8837603   -3.6605180 
H     8.9419215    0.3715580   -3.0905242 
H     6.9425840    1.6476057   -4.4289077 
