48
Energy =
C     3.0862464   -5.4347757   -1.2524572 
C     2.9415442   -4.2207374   -1.8413249 
C     2.1737531   -5.8652897   -0.3406807 
C     1.1215765   -5.0765863   -0.0246382 
C     0.9716789   -3.8615473   -0.6104395 
C     1.8809720   -3.4275354   -1.5258442 
H     3.6792023   -3.8892406   -2.5677384 
H     0.4015811   -5.4314664    0.7046257 
H     0.1213417   -3.2415146   -0.3391868 
H     3.9336404   -6.0599511   -1.5121217 
C     1.7316719   -2.0676244   -2.1705626 
C     2.6645221   -1.0087102   -1.5330144 
H     0.6757430   -1.7174472   -2.1240630 
H     1.9642445   -2.1628730   -3.2556525 
C     2.6823705    0.2926110   -2.3308531 
O     2.2941569   -7.1098439    0.2861562 
H     3.1051290   -7.6427839   -0.0083611 
O     1.7949682    0.4903607   -3.3860582 
N     2.2796979   -0.7498333   -0.1354590 
H     3.7102230   -1.3909431   -1.5559847 
H     1.2638639   -0.4961533   -0.0836041 
H     2.4191652   -1.6143830    0.4391215 
N     3.6711879    1.3040459   -2.0671781 
C     4.8717496    1.3135163   -2.9524990 
H     3.9469868    1.2408628   -1.0590996 
C     5.0415571    2.6964271   -3.5719390 
O     6.2927348    3.3009305   -3.5548920 
O     3.9922347    3.3420408   -4.2258454 
H     3.1272061    2.8309684   -4.1060439 
C     4.8801714    0.2088472   -4.0510925 
H     5.7769385    1.1572841   -2.3201721 
C     6.1728351    0.2056989   -4.8417563 
H     4.0154971    0.3379757   -4.7399239 
H     4.7746734   -0.7919774   -3.5825390 
C     6.4212921    0.8446403   -5.9974072 
C     5.6089240    1.6238012   -6.7579060 
C     6.1172880    2.1706190   -7.8990901 
C     7.4144310    1.9335021   -8.2608587 
C     8.2122286    1.1493388   -7.4818627 
C     7.6866011    0.6195434   -6.3573716 
H     4.5816805    1.8266746   -6.4702382 
H     5.4888497    2.8060842   -8.5188362 
H     7.8131826    2.3783866   -9.1691617 
H     9.2453924    0.9573524   -7.7505366 
N     8.3467399   -0.2080428   -5.4098263 
C     7.2975643   -0.4237656   -4.4574428 
H     9.3289480   -0.5671758   -5.4145137 
H     7.4065245   -1.0037168   -3.5442371 
