48
 energy: -9.293806731325 gnorm: 0.000568058076 xtb: 6.6.0 (2ccbbd7)
C            0.93323983991946        6.43121160478827       -5.25140370662093
C            0.68495783325617        5.51641678421405       -4.25572215040198
C            2.24244544179964        6.77663914233605       -5.58885255681445
C            3.28690000831961        6.16978287789218       -4.89171842581362
C            3.03069603964493        5.25608369164951       -3.89896520585930
C            1.72773551636710        4.91832122597669       -3.56322321459536
H           -0.32908533759700        5.25591138261732       -4.00542081135423
H            4.29666033066608        6.43101373210359       -5.15389749707096
H            3.84530541763569        4.77390503030633       -3.38269517932251
H            0.11823664121275        6.89027399836158       -5.78172294752844
C            1.46625394268680        3.90539077306201       -2.49295855315366
C            1.94039612374787        2.50290667696764       -2.87875788513724
H            0.39939627992249        3.86618575892235       -2.25512005264568
H            1.96694934653186        4.22173351118241       -1.57160906475828
C            1.82585320655186        1.56180562425274       -1.70282740153158
O            2.52443137864432        7.68995904349894       -6.58661295648452
H            1.69046277875169        8.03154675025155       -6.97559116962137
O            0.71198591079960        1.17914566742725       -1.40768299673959
N            1.19424100909292        1.94908854077393       -3.99602090299402
H            2.98875719954013        2.56682933838413       -3.19562672094392
H            0.25872241503317        1.74547852976542       -3.67042994064072
H            1.12088719500408        2.63183262876335       -4.73913104901650
N            2.94107214850956        1.15656494004921       -0.99801863116963
C            4.33310604987621        1.44748331774967       -1.37480495358078
H            2.82572206680633        0.41829287657244       -0.30627027136854
C            4.51176655884117        2.94176716005472       -1.55892648525611
O            5.06740775273989        3.36219817833379       -2.55074372567940
O            3.98505322632152        3.70993803099770       -0.57477552245181
H            3.56623132596143        3.13838050771026        0.11046729969529
C            4.77306076150219        0.64646731722826       -2.60186132848375
H            4.97071889208902        1.15106654180900       -0.52890992656015
C            4.57568862913027       -0.82098908866190       -2.44070805686029
H            5.82354143130928        0.86137047451761       -2.82291057384228
H            4.21757027722891        0.98350132354128       -3.47965567031384
C            3.39069430982036       -1.55176868829886       -2.75307528605183
C            2.14736430448075       -1.17854892737899       -3.29085436182330
C            1.19025090702840       -2.13966541714947       -3.45707156055891
C            1.43267059066640       -3.47707953242589       -3.10548205654520
C            2.63407969465900       -3.86347479437661       -2.57808566235118
C            3.62727056716401       -2.89321971200822       -2.39564732542969
H            1.94714686034172       -0.14890264915309       -3.53316202290490
H            0.22722407673652       -1.86450297989596       -3.85420252252562
H            0.65502568487857       -4.20889992686184       -3.24868357796900
H            2.82714561038559       -4.88401821751060       -2.30004070033349
N            4.90886656335611       -2.96678304725847       -1.87890664046101
C            5.46901032669096       -1.71349713491827       -1.90248598962254
H            5.34434392051234       -3.82012246211487       -1.52413932581682
H            6.45667161503322       -1.47161153064646       -1.54461093297833
