48
 energy: -9.390858246477 gnorm: 0.000667863482 xtb: 6.6.0 (2ccbbd7)
C            2.23221001818360        4.02065094419646        2.96889936128576
C            2.43040692135700        2.70378282326136        2.62669672669656
C            1.47059783836787        4.86017401069457        2.15522217512474
C            0.92486200499172        4.33001754316730        0.98669440795528
C            1.12869499178399        3.01323829986085        0.65293267946234
C            1.87681636770524        2.17719216804573        1.46856449630517
H            3.02267299541809        2.06714537776420        3.26131774308400
H            0.35028163560871        4.97952152982062        0.35068799073994
H            0.72876143200418        2.61807474949606       -0.26569379109825
H            2.66392599508886        4.41790302705276        3.86991692287111
C            2.11566086600194        0.75024846493358        1.07800043531498
C            3.07977956937259        0.61061778716462       -0.10343672909272
H            1.15738230153768        0.28884225284696        0.81660768012486
H            2.49858695923897        0.19451336621587        1.93977710510853
C            2.48998265983564        1.20321230165455       -1.35557836509794
O            1.24762059033268        6.18573261387287        2.47456643068938
H            1.70707098247187        6.41316539298679        3.31143138569359
O            1.32529288280111        1.01847809362450       -1.64850363097680
N            4.38571694627678        1.27786416151100        0.17460592625902
H            3.28625671705549       -0.45112354764303       -0.30333761248983
H            4.12474827583458        2.43793690624033        0.05332461293012
H            4.69575646937657        1.19961132030986        1.15991843284844
N            3.34194748811839        1.97473114656323       -2.10455070108479
C            4.72505948890170        2.22027172291000       -1.70301799156821
H            2.99277777902744        2.57724785565593       -2.85541614468600
C            5.12109411271841        3.61987022433360       -2.12251278726336
O            4.55010019306146        4.10257712890830       -3.07586829967429
O            6.10592760341740        4.21713287106830       -1.40614833476459
H            6.44156862580339        3.63248299012552       -0.68998040643577
C            5.66807393865434        1.17723230256249       -2.30242015116081
H            4.76404619051394        2.18352791966045       -0.46087396651889
C            5.67898851406410        1.19190117374372       -3.79411529449767
H            5.37091455624214        0.18292938229170       -1.95751903134082
H            6.68423956487930        1.34244489799661       -1.93195322323349
C            4.66094490254412        0.69046598691031       -4.65899522829173
C            3.42552856247970        0.06247518722110       -4.42377716907351
C            2.64366848806054       -0.27389603282617       -5.49321190628907
C            3.05617328091094       -0.00345888126662       -6.80775166470247
C            4.25097173986333        0.61207590531275       -7.06204552534375
C            5.06520713886763        0.96747254527878       -5.97923500618386
H            3.09236826937476       -0.10518184435577       -3.41566092665211
H            1.68693407915140       -0.73986795119323       -5.32441232290971
H            2.41433620982680       -0.27799208370442       -7.62846332348870
H            4.56964729622837        0.83375105693686       -8.06473292501736
N            6.28452640301448        1.61768111866115       -5.91314094715342
C            6.63603704554293        1.76552305606911       -4.59470453813077
H            6.78004581944933        2.00786433852996       -6.71697143301127
H            7.51410756659098        2.28470596713762       -4.24508025448745
