48
Energy =
C     2.9122733   -4.4678651    3.6649803 
C     3.4242320   -4.0991375    2.4637420 
C     2.9569020   -3.6100720    4.7189412 
C     3.5129046   -2.3876914    4.5628954 
C     4.0267900   -2.0130093    3.3635575 
C     3.9886111   -2.8698390    2.3066737 
H     3.3759173   -4.7938804    1.6293156 
H     3.5384928   -1.7144774    5.4126859 
H     4.4675192   -1.0250221    3.2569011 
H     2.4661797   -5.4497062    3.7789073 
C     4.5447850   -2.4465411    0.9657745 
C     3.5690300   -1.5245304    0.1934650 
H     4.7955449   -3.3338982    0.3422962 
H     5.5127367   -1.9195939    1.1285743 
C     4.2173309   -0.8912534   -1.0220153 
O     2.4388322   -3.9574424    5.9704266 
H     2.0397576   -4.8890586    6.0058677 
O     5.5120081   -1.2200578   -1.4105733 
N     2.3604152   -2.2660500   -0.2055615 
H     3.2800087   -0.6624495    0.8423011 
H     2.6302334   -3.1543663   -0.6918522 
H     1.8150409   -2.5332183    0.6483742 
N     3.5094418    0.1092801   -1.7519545 
C     4.0867279    1.4650989   -1.7810067 
H     2.6186836   -0.1646844   -2.2255026 
C     3.0362174    2.5105273   -1.4599565 
O     2.7881799    2.8189099   -0.1296170 
O     2.2669979    3.1289294   -2.4421833 
H     2.5538061    2.8786826   -3.5367362 
C     4.7817872    1.6893686   -3.1319345 
H     4.8553510    1.5828222   -0.9784153 
C     3.8213051    1.4995406   -4.2841554 
H     5.6473464    0.9952609   -3.2113936 
H     5.2110545    2.7159757   -3.1800800 
C     3.7393005    0.4132728   -5.0606260 
C     4.3803371   -0.7819027   -4.9493184 
C     4.1218590   -1.7487534   -5.8744036 
C     3.2385926   -1.5104651   -6.8879466 
C     2.6107446   -0.3042378   -6.9763762 
C     2.8826680    0.6359279   -6.0440411 
H     5.0746577   -0.9833671   -4.1387004 
H     4.6208563   -2.7127983   -5.8020320 
H     3.0366475   -2.2844985   -7.6252886 
H     1.9078423   -0.0961616   -7.7760505 
N     2.3297789    1.9424021   -5.9906558 
C     2.8731133    2.5900035   -4.7746991 
H     1.6399964    2.3370752   -6.6747254 
H     1.8575099    2.9591368   -4.5280422 
