48
 energy: -9.074406092271 gnorm: 0.000655698057 xtb: 6.6.0 (2ccbbd7)
C           -1.83652131285052        0.44355492152978        2.63162388128475
C           -1.27185371361241        1.64151395292637        2.25789575671012
C           -1.25037451512078       -0.76886331923578        2.26214244709573
C           -0.07955734789091       -0.72937172257798        1.50389373303897
C            0.46738078170649        0.47195423046519        1.14096920947802
C           -0.10248741012103        1.67497926023378        1.50924090775851
H           -1.73803686840419        2.56890011172688        2.54345110363643
H            0.38011190341190       -1.65541265462335        1.20940249200995
H            1.49057488771886        0.57243104224634        0.46619625910847
H           -2.74094052203871        0.42981874411829        3.21299477162847
C            0.49471904931036        2.98004135147111        1.06860036197950
C            2.02898692263056        2.98928593653038        0.99632650799631
H            0.17314355405077        3.77115463688917        1.75348264077055
H            0.09156483188264        3.24952032831019        0.08816664387456
C            2.55575814251436        2.18148555816102       -0.15389821362824
O           -1.79375918823719       -1.98728550766301        2.62150190621687
H           -2.61058964778119       -1.84815654738976        3.14791124642274
O            2.40413076512700        0.81913569545793       -0.15227682975323
N            2.56527648403784        4.35012425063801        0.97399011845135
H            2.41386551339243        2.52388151180057        1.91822507956859
H            3.53691030650606        4.31828948110731        0.63938601332894
H            2.04914629071575        4.91550122575422        0.31390350704133
N            3.23332018434708        2.80991215221456       -1.20536295161376
C            4.54463029677797        2.28579237529546       -1.56335921579554
H            3.27467204479064        3.83523273794011       -1.22534336008548
C            5.62003550285508        3.23054395896808       -1.04063224365568
O            5.25282869972639        4.15793550111421       -0.35035968295585
O            6.91660272859601        2.96785421940505       -1.35016145473498
H            6.99258525829549        2.21048532936264       -1.96824762202592
C            4.61930961946901        1.97901002260889       -3.06214618203114
H            4.64681909732057        1.34287188563361       -1.01075993556863
C            5.76709858331666        1.09168123620032       -3.40534177257027
H            4.68169702781877        2.91672557052860       -3.62145472420064
H            3.68706734314460        1.49792725624211       -3.37511484046218
C            6.05565276728978       -0.16695970169694       -2.79368453239630
C            5.34191679788031       -0.98519961401549       -1.89928606312068
C            5.92783832927202       -2.13844735209874       -1.45665195730838
C            7.21642252010321       -2.50764647701409       -1.87600680880488
C            7.93071134392810       -1.72518270463443       -2.74136762542009
C            7.34839634259623       -0.53997387378668       -3.20739757552329
H            4.35638987049531       -0.70092454392144       -1.57428106026994
H            5.39459772632529       -2.77507391469923       -0.77014372213838
H            7.64981752392056       -3.42167877297742       -1.50500698976150
H            8.92085562338786       -1.99551564897184       -3.06200042389668
N            7.81908811681530        0.45803195010769       -4.04186944045276
C            6.85401253649528        1.42416014321290       -4.17774664746001
H            8.73881891220948        0.45635792453778       -4.48715503903509
H            6.96825845180235        2.33538577596964       -4.74271508283422
