48
Energy =
C    -3.8527113   -2.5868960   -0.9893164 
C    -2.5625344   -2.5014276   -1.4016617 
C    -4.2312373   -2.0300955    0.1922904 
C    -3.3146329   -1.3899862    0.9531579 
C    -2.0232376   -1.3011750    0.5457733 
C    -1.6385212   -1.8600242   -0.6341913 
H    -2.2771286   -2.9472832   -2.3510545 
H    -3.6292956   -0.9486599    1.8923314 
H    -1.3021975   -0.7803780    1.1701048 
H    -4.5809699   -3.1004517   -1.6076300 
C    -0.2021414   -1.7479948   -1.0953791 
C     0.1206713   -0.3557295   -1.6892831 
H     0.0364302   -2.5361801   -1.8452305 
H     0.4671903   -1.9493330   -0.2294826 
C     1.6194710   -0.2013169   -1.9215769 
O    -5.5524994   -2.1000300    0.6463112 
H    -6.1769617   -2.5954171    0.0194281 
O     2.2675475   -1.2197373   -2.6123225 
N    -0.6200443   -0.1373427   -2.9419358 
H    -0.1799420    0.4276693   -0.9570713 
H    -0.4007313   -0.9054046   -3.6205018 
H    -1.6497700   -0.1529835   -2.7568015 
N     2.2397371    1.0846669   -1.6530337 
C     3.7085115    1.3451326   -1.7968598 
H     1.9919924    1.2943604   -0.6584078 
C     3.9315685    2.8449996   -2.1153609 
O     5.0675192    3.2706111   -2.7903586 
O     3.0720248    3.8459539   -1.6536856 
H     2.2314036    3.4854664   -1.2360937 
C     4.4280618    0.3921771   -2.7992639 
H     4.1968844    1.1900435   -0.8078377 
C     5.9040158    0.6746664   -3.0107294 
H     3.8645814    0.3649462   -3.7553416 
H     4.4199903   -0.6346194   -2.3821252 
C     6.5054032    1.0783364   -4.1443796 
C     5.9754780    1.3737945   -5.3605632 
C     6.8188688    1.7682448   -6.3575226 
C     8.1634620    1.8616575   -6.1288121 
C     8.6732965    1.5637418   -4.9005254 
C     7.8194143    1.1765484   -3.9297830 
H     4.9082564    1.3186573   -5.5462643 
H     6.4183754    2.0175307   -7.3373151 
H     8.8281473    2.1811482   -6.9275493 
H     9.7368648    1.6377429   -4.7009832 
N     8.1462192    0.8245172   -2.5930674 
C     6.8502142    0.5145217   -2.0668658 
H     9.0813799    0.7901141   -2.1266851 
H     6.6664658    0.1844748   -1.0473294 
