48
Energy =
C     0.2876786    1.6038428   -5.5330924 
C    -0.2211323    0.7989929   -4.5683839 
C     1.5901347    1.9910426   -5.4934229 
C     2.3750061    1.5875943   -4.4603235 
C     1.8639983    0.8249630   -3.4519367 
C     0.5587326    0.3777117   -3.5388035 
H    -1.2604627    0.4871610   -4.6299853 
H     3.4317148    1.8452038   -4.4270982 
H     2.7261757    0.3554326   -2.5905648 
H    -0.3476447    1.9229209   -6.3514785 
C    -0.0535817   -0.5195528   -2.4705136 
C     0.9134312   -0.9181661   -1.3277794 
H    -0.4398134   -1.4409680   -2.9572279 
H    -0.9206421    0.0185541   -2.0266914 
C     1.6348338    0.3094663   -0.7803422 
O     2.1397087    2.7832478   -6.5137590 
H     1.4746236    3.0624688   -7.2240502 
O     1.3618338    0.7889982    0.4991182 
N     0.1891431   -1.6573548   -0.2818005 
H     1.7063524   -1.5811246   -1.7407431 
H    -0.4920925   -1.0139252    0.1887344 
H    -0.3591583   -2.4383378   -0.7104517 
N     2.3086482    1.1891989   -1.7145267 
C     3.5579524    1.8171681   -1.1561931 
H     1.6131794    2.0167050   -1.6738098 
C     3.7484378    3.2799105   -1.5978384 
O     4.7895774    3.6159196   -2.4553644 
O     2.9418030    4.2979953   -1.0924868 
H     2.2208915    3.9426918   -0.4810940 
C     4.8267284    0.9689220   -1.4808909 
H     3.4766500    1.9158091   -0.0474391 
C     4.7056289   -0.4997038   -1.1164976 
H     5.7111431    1.3977389   -0.9593922 
H     5.0452214    1.0884176   -2.5768637 
C     4.5840844   -1.0318378    0.1125855 
C     4.5709618   -0.4292805    1.3286719 
C     4.4081807   -1.2072581    2.4382057 
C     4.2684831   -2.5619809    2.3165560 
C     4.2913804   -3.1466304    1.0856617 
C     4.4518513   -2.3554099    0.0045881 
H     4.6810020    0.6440548    1.4270703 
H     4.3806202   -0.7481333    3.4243728 
H     4.1324909   -3.1758455    3.2040190 
H     4.1775544   -4.2195093    0.9708893 
N     4.4950143   -2.7622588   -1.3549605 
C     4.6640735   -1.5019521   -2.0146683 
H     4.4198264   -3.7243402   -1.7595793 
H     4.7165370   -1.3804247   -3.0958706 
