48
Energy =
C     2.8878856    4.9455107    0.0724417 
C     2.3458242    3.9897911    0.8693694 
C     2.1316069    5.5464701   -0.8845966 
C     0.8370848    5.1847329   -1.0376303 
C     0.2934753    4.2211936   -0.2512231 
C     1.0444866    3.6211439    0.7116814 
H     2.9694677    3.4955542    1.6162562 
H     0.2456996    5.6691156   -1.8066837 
H    -0.7429310    3.9307850   -0.4018204 
H     3.9332991    5.2144327    0.1921923 
C     0.4592904    2.5097959    1.5566553 
C     0.7265672    1.1191632    0.9383939 
H    -0.6357613    2.6625210    1.6725219 
H     0.8868221    2.5450011    2.5844917 
C     2.2178883    0.8334957    0.8522332 
O     2.6582153    6.5325459   -1.7252121 
H     3.6516710    6.6933381   -1.5910602 
O     2.9871244    0.9111012    2.0131402 
N     0.0487077    0.0812501    1.7257595 
H     0.3142880    1.0942046   -0.0959979 
H     0.4688431    0.0511089    2.6867698 
H    -0.9660024    0.3125622    1.8284989 
N     2.8516515    0.7176255   -0.4383962 
C     4.3324972    0.6644287   -0.3631292 
H     2.5658272    1.5619525   -0.9890884 
C     4.9498587    2.0622701   -0.2532676 
O     5.0107851    2.8711371   -1.3829236 
O     5.4063718    2.5847931    0.9577722 
H     5.2508517    1.9455315    1.7266255 
C     4.8529374   -0.0727253   -1.6157984 
H     4.6722254    0.0848438    0.5286167 
C     4.6167817   -1.5652300   -1.5185306 
H     5.9455520    0.1095577   -1.7334867 
H     4.3718406    0.3395514   -2.5297609 
C     3.4825021   -2.2312201   -1.7925215 
C     2.2898101   -1.7730654   -2.2496978 
C     1.2769228   -2.6687482   -2.4358540 
C     1.4718474   -3.9957976   -2.1685108 
C     2.6791718   -4.4339602   -1.7117616 
C     3.6635473   -3.5278687   -1.5347138 
H     2.1353907   -0.7190731   -2.4537601 
H     0.3076158   -2.3252343   -2.7905630 
H     0.6599168   -4.7045997   -2.3137498 
H     2.8494367   -5.4820552   -1.4884980 
N     4.9786027   -3.7732862   -1.0584264 
C     5.5262801   -2.4487936   -1.0700658 
H     5.4267862   -4.6766743   -0.7802478 
H     6.5320824   -2.1975351   -0.7397085 
