48
Energy =
C     5.3595318    5.0183169    1.7977422 
C     5.0604858    3.8096425    2.3375960 
C     4.4665479    5.6438504    0.9858298 
C     3.2812460    5.0530892    0.7174134 
C     2.9730007    3.8498457    1.2648316 
C     3.8629484    3.2144854    2.0735080 
H     5.7884385    3.3211226    2.9801750 
H     2.5889908    5.5504578    0.0459000 
H     2.0162025    3.3947407    1.0382516 
H     6.3151265    5.4830283    2.0161887 
C     3.5372960    1.8577859    2.6719684 
C     3.9364045    0.6275166    1.8039649 
H     2.4537420    1.8035599    2.9211489 
H     4.0548661    1.7710929    3.6530004 
C     2.7903987    0.0637220    0.9694593 
O     4.7383346    6.8954693    0.4244528 
H     5.6678269    7.2462289    0.6277339 
O     2.1307734   -1.0577427    1.4574659 
N     5.1576121    0.8562827    1.0138269 
H     4.1566654   -0.2046976    2.5148276 
H     5.0141894    1.6290948    0.3213355 
H     5.9415356    1.1378999    1.6451677 
N     2.1061125    0.8377585   -0.0239233 
C     2.7545930    1.0216913   -1.3340058 
H     1.2252035    1.3261514    0.2462884 
C     2.9278446    2.5122247   -1.6362967 
O     4.2029631    3.0398834   -1.8049468 
O     1.8351877    3.3851437   -1.7155405 
H     0.9574429    2.8957946   -1.6222091 
C     1.9111160    0.3283975   -2.4265205 
H     3.7681867    0.5619406   -1.3358911 
C     2.3240861   -1.1129711   -2.6367037 
H     2.0333677    0.8630312   -3.3953136 
H     0.8309329    0.3855602   -2.1771754 
C     1.8801391   -2.1949842   -1.9771035 
C     0.9805751   -2.2922859   -0.9672181 
C     0.7009650   -3.5291708   -0.4622314 
C     1.3144823   -4.6386010   -0.9746877 
C     2.2174612   -4.5168429   -1.9885244 
C     2.4801979   -3.2822804   -2.4661661 
H     0.5247722   -1.4059982   -0.5350608 
H     0.0042156   -3.6293468    0.3675141 
H     1.0935853   -5.6201016   -0.5621850 
H     2.7216321   -5.3849436   -2.3995071 
N     3.3897106   -2.9397450   -3.5019988 
C     3.2334457   -1.5155235   -3.5429519 
H     3.9991577   -3.5607492   -4.0826626 
H     3.7836678   -0.8563377   -4.2114507 
