48
 energy: -9.184957050034 gnorm: 0.000735856232 xtb: 6.6.0 (2ccbbd7)
C           -1.06071489039172       -0.36202348440135       -5.38247183195549
C           -0.63973357115415       -0.86613730254966       -4.17476799040073
C           -0.82178301175870        0.97023468267995       -5.71794520286830
C           -0.16333607319255        1.77419233288421       -4.78916361753989
C            0.24925568077436        1.26122726602104       -3.58334289476624
C            0.02448509183608       -0.06901142198297       -3.25138694765957
H           -0.80831221197001       -1.90357329743368       -3.94123584227334
H            0.03459843171060        2.79995025257446       -5.04674586762867
H            0.76455460049399        1.90859100459679       -2.89671224937124
H           -1.56631117238528       -0.99638817748959       -6.08830002389194
C            0.54795685380166       -0.70541046353640       -1.99246870672167
C            0.71919317552057        0.22501937274359       -0.77905346086944
H            1.50012061129608       -1.19247818256340       -2.22173403668605
H           -0.13520710248663       -1.51273164546704       -1.70862489748710
C            1.71639556012998        1.30878002267368       -1.02354988045404
O           -1.20405865438862        1.49789099852733       -6.93693017380258
H           -1.67573808505234        0.81722368713265       -7.46475496711734
O            1.27263782087158        2.62574607926563       -0.86393466027812
N           -0.55665034040112        0.80984132238204       -0.38556169422765
H            1.08250606968888       -0.36676563275146        0.07727070835951
H           -0.36413264163436        1.57029620073978        0.25901466875884
H           -0.96903019322617        1.24920759279682       -1.19628613345050
N            3.00848088420678        1.04118060289981       -1.44009250917400
C            3.80607794345177        2.02955979408574       -2.17396728447012
H            3.21587847391365        0.10279080375149       -1.76827527397192
C            2.92878503287552        3.10566256971947       -2.77948248680995
O            3.11816315908523        3.47056900147639       -3.93758082316900
O            1.92961964880128        3.65166890464877       -1.95152448254993
H            2.13159937579149        3.39923210279662       -0.84391396955497
C            4.67506635885928        1.34550279839165       -3.24311099932193
H            4.45766280288304        2.52377365296339       -1.43809437694415
C            3.87838245764169        0.50488371360217       -4.18456373278564
H            5.43806629390930        0.72354728182657       -2.76460084713187
H            5.21094871654387        2.11001360323173       -3.81526516412380
C            3.62275394990643       -0.89536027329149       -4.07679815878621
C            4.05424343651550       -1.88086090222548       -3.17073804055391
C            3.56267506783949       -3.15038446485464       -3.30170653310378
C            2.64799497439062       -3.47614083107677       -4.31674172604888
C            2.21945601312017       -2.53572409349887       -5.21305590475876
C            2.70939425790861       -1.22903791854146       -5.09700615689283
H            4.76455622912440       -1.63485115881197       -2.40085215803232
H            3.88294372143372       -3.91743179639916       -2.61614643505194
H            2.27965728763778       -4.48602384545229       -4.39018887122103
H            1.51569491803381       -2.77415853981094       -5.99024339413861
N            2.43067830765757       -0.07226439204676       -5.80476359543508
C            3.12336019926014        0.96596636862923       -5.23406900729679
H            1.71596247016153        0.01413122306582       -6.52930319146603
H            3.01739565889698        2.00465653861870       -5.50498633854420
