48
Energy =
C     1.7126473    4.9930393    3.5874250 
C     1.6838953    4.1828224    2.4991264 
C     1.2512851    4.5451166    4.7857521 
C     0.7644269    3.2873959    4.8865332 
C     0.7331262    2.4726966    3.8017752 
C     1.1896139    2.9177778    2.5991787 
H     2.0606475    4.5549455    1.5489593 
H     0.4016270    2.9412227    5.8480824 
H     0.3421007    1.4635428    3.9038917 
H     2.1069642    5.9994881    3.4967733 
C     1.1740828    2.0035517    1.3946744 
C     2.3365238    0.9834493    1.4261845 
H     1.2150606    2.5975751    0.4530362 
H     0.2027929    1.4594752    1.3693637 
C     2.2100328   -0.0311058    0.3026251 
O     1.2676167    5.3538277    5.9268555 
H     1.6447491    6.2819179    5.7683840 
O     1.8967076   -1.3473248    0.6148359 
N     3.6406700    1.6704282    1.3833757 
H     2.2690644    0.3808374    2.3650175 
H     3.6147483    2.4807493    0.7171787 
H     3.8450286    2.0781840    2.3262807 
N     2.0321391    0.3929910   -1.0522601 
C     3.2203222    0.8618044   -1.7875027 
H     1.0691126    0.3769936   -1.4555201 
C     3.0257134    2.2946816   -2.2534306 
O     3.8210513    3.2945748   -1.7094804 
O     2.0511719    2.6483446   -3.1856257 
H     1.5225281    1.8495331   -3.4999314 
C     3.5034827   -0.1026607   -2.9594529 
H     4.1208398    0.8973199   -1.1256585 
C     4.2166472   -1.3465697   -2.4756544 
H     4.1148791    0.4001623   -3.7410788 
H     2.5524571   -0.3967586   -3.4560858 
C     5.5428144   -1.5610349   -2.4580818 
C     6.5616849   -0.7667949   -2.8793104 
C     7.8399623   -1.2195936   -2.7323311 
C     8.0795682   -2.4419271   -2.1682028 
C     7.0420840   -3.2184243   -1.7453501 
C     5.7864736   -2.7509464   -1.9055997 
H     6.3791178    0.2095982   -3.3173047 
H     8.6732223   -0.6027331   -3.0607935 
H     9.1014826   -2.7936576   -2.0503659 
H     7.2145733   -4.1859865   -1.2863478 
N     4.5789936   -3.3853294   -1.5114315 
C     3.6103955   -2.4027212   -1.9055086 
H     4.4333744   -4.3206729   -1.0663787 
H     2.5413817   -2.4706332   -1.7027555 
