48
Energy =
C    -3.6073248    2.0713262    0.4179435 
C    -2.6287135    1.5946288   -0.3924439 
C    -4.1926395    1.2559682    1.3358728 
C    -3.7930836   -0.0322559    1.4362123 
C    -2.8150313   -0.5141622    0.6284067 
C    -2.2293133    0.2967182   -0.2942510 
H    -2.1671318    2.2595907   -1.1184599 
H    -4.2658049   -0.6721457    2.1727003 
H    -2.5040467   -1.5512801    0.7254287 
H    -3.9190243    3.1064048    0.3303373 
C    -1.1259452   -0.2349625   -1.1808658 
C     0.2299381   -0.3145727   -0.4400052 
H    -1.0251599    0.3884825   -2.0972185 
H    -1.4117825   -1.2503752   -1.5392709 
C     1.2566936   -1.0687616   -1.2704959 
O    -5.2029574    1.7161425    2.1874406 
H    -5.4470323    2.6899054    2.0446196 
O     1.0567299   -2.4222819   -1.5239918 
N     0.7018081    1.0295718   -0.0624291 
H     0.1054582   -0.9268086    0.4824336 
H     0.6117376    1.6818644   -0.8763831 
H     0.0884804    1.4069771    0.6972236 
N     2.4993986   -0.4647036   -1.6660805 
C     2.5953212   -0.2278132   -3.1264669 
H     3.2593955   -1.1017143   -1.3387963 
C     1.4605263    0.6593220   -3.6382425 
O     0.4268933    0.1085442   -4.3882210 
O     1.4194964    2.0236588   -3.3478922 
H     2.1927064    2.3021472   -2.7586974 
C     2.7310529   -1.5440572   -3.9435997 
H     3.5169801    0.3678813   -3.3054035 
C     4.0331405   -2.2691410   -3.6619310 
H     2.7163116   -1.2970028   -5.0286596 
H     1.8440172   -2.1912805   -3.7805502 
C     4.2076148   -3.4625695   -3.0609105 
C     3.2993167   -4.3388955   -2.5566038 
C     3.7534946   -5.4980554   -1.9969936 
C     5.0923394   -5.7655378   -1.9529644 
C     5.9867524   -4.8769859   -2.4681846 
C     5.5147590   -3.7369006   -3.0140098 
H     2.2339413   -4.1389101   -2.5860788 
H     3.0464791   -6.2127797   -1.5803815 
H     5.4460907   -6.6912425   -1.5044351 
H     7.0532627   -5.0756976   -2.4429014 
N     6.2777011   -2.6969885   -3.6070135 
C     5.2435927   -1.7893418   -4.0028798 
H     7.3150592   -2.6190286   -3.7235578 
H     5.4218766   -0.8452532   -4.5139443 
