48
Energy =
C     2.4724050   -3.3885194   -1.3329948 
C     2.3505423   -2.2761486   -2.1353776 
C     1.8953474   -4.5645933   -1.6776362 
C     1.1334073   -4.6349860   -2.7861913 
C     0.9159295   -3.5352526   -3.5445118 
C     1.4897727   -2.3422154   -3.2191639 
H     2.7858142   -1.1515554   -1.6868899 
H     0.6736844   -5.5840741   -3.0437870 
H     0.2611023   -3.6218379   -4.4081786 
H     3.0447403   -3.3298854   -0.4149325 
C     1.1687012   -1.1187572   -4.0673791 
C     0.3664637   -0.0392034   -3.3018740 
H     0.5835919   -1.4281906   -4.9621057 
H     2.0996205   -0.6920602   -4.4872596 
C     1.2229173    0.6963871   -2.2901728 
O     2.0574889   -5.7162511   -0.9018673 
H     2.6470821   -5.5964873   -0.0843623 
O     0.9698008    0.5469302   -0.9311804 
N    -0.2269847    0.9112703   -4.2593204 
H    -0.4516773   -0.5262634   -2.7153575 
H     0.5274364    1.3691449   -4.8330539 
H    -0.8709836    0.4124041   -4.9167227 
N     2.2459808    1.5970038   -2.7300472 
C     3.5706105    1.2993974   -2.1213690 
H     1.9219409    2.5384028   -2.4041071 
C     4.4621386    2.5426836   -2.1312251 
O     5.1343409    2.9050317   -0.9656882 
O     4.6442406    3.3048463   -3.2913674 
H     4.1347421    2.9421505   -4.0907873 
C     4.2817557    0.1405699   -2.8870335 
H     3.4564031    1.0505136   -1.0461192 
C     3.9913479   -1.3093161   -2.3585463 
H     5.3896965    0.3097392   -2.8915518 
H     4.0129410    0.2327083   -3.9607432 
C     5.0106025   -1.6212184   -1.2796314 
C     5.0427418   -1.1483743   -0.0056198 
C     6.0406903   -1.5536651    0.8245233 
C     6.9862228   -2.4287114    0.3830087 
C     6.9321549   -2.9062010   -0.8890290 
C     5.9351727   -2.4959886   -1.7055353 
H     4.2872588   -0.4634310    0.3608044 
H     6.0854693   -1.1749097    1.8426838 
H     7.7862267   -2.7457674    1.0474742 
H     7.6795419   -3.6048745   -1.2517647 
N     5.7761658   -2.9528055   -3.0473909 
C     4.5984892   -2.2375699   -3.4472953 
H     5.5273804   -3.9689592   -3.0085295 
H     4.2134635   -2.2915344   -4.4644992 
