48
Energy =
C    -2.0678071    0.9443759   -2.7793830 
C    -1.3899180    1.4255036   -1.7050581 
C    -1.9696959    1.5668536   -3.9835648 
C    -1.2027833    2.6652356   -4.1162314 
C    -0.5390891    3.1502754   -3.0648782 
C    -0.6104818    2.5395162   -1.8388922 
H    -1.4842256    0.9128147   -0.7461697 
H    -1.1089752    3.1669151   -5.0613390 
H     0.1131690    4.0522065   -3.1716041 
H    -2.6941854    0.0553825   -2.6750965 
C     0.1633279    3.0936470   -0.6334375 
C     1.7188345    3.1504980   -0.7903107 
H    -0.0681580    2.4837017    0.2724705 
H    -0.2278545    4.1090932   -0.3959502 
C     2.2871754    1.9501423   -1.5266112 
O    -2.6457382    1.1007575   -5.1031969 
H    -3.2226474    0.2695778   -4.9608999 
O     1.9331359    1.7754380   -2.8573178 
N     2.1732940    4.4131197   -1.4096058 
H     2.1544164    3.1178601    0.2380427 
H     1.8150161    4.5639580   -2.3937740 
H     1.8407935    5.2265285   -0.8405691 
N     2.8025890    0.8281687   -0.8005514 
C     4.1355598    0.4175633   -1.3105531 
H     2.1116033    0.0573854   -0.9812877 
C     4.4274993   -1.0359603   -0.9312546 
O     3.9008716   -1.5341302    0.2517088 
O     5.2149674   -1.8659629   -1.7225847 
H     5.6055965   -1.4020919   -2.5314808 
C     5.2191250    1.3579848   -0.7221215 
H     4.1600094    0.4618221   -2.4274612 
C     6.5834332    1.0767732   -1.3175996 
H     5.2679901    1.2435692    0.3897411 
H     4.9713978    2.4251721   -0.9093201 
C     7.0378271    1.4881757   -2.5137341 
C     6.4348820    2.2574763   -3.4571082 
C     7.1174261    2.5235268   -4.6084249 
C     8.3747504    2.0200366   -4.7983267 
C     8.9575474    1.2465330   -3.8392283 
C     8.2638954    1.0002700   -2.7086948 
H     5.4365640    2.6557032   -3.3136026 
H     6.6632792    3.1382470   -5.3829615 
H     8.9136696    2.2351556   -5.7193120 
H     9.9531223    0.8354248   -3.9769479 
N     8.6753306    0.2106070   -1.6036946 
C     7.5298135    0.3052795   -0.7485927 
H     9.5774308   -0.3026847   -1.4595290 
H     7.4396603   -0.2098154    0.2085378 
