48
 energy: -9.199136339493 gnorm: 0.000744814646 xtb: 6.6.0 (2ccbbd7)
C           -0.96390066721018        4.43232852125733       -3.81237969911814
C           -0.01170028066134        3.50895774633552       -4.17440290345912
C           -0.88773452202198        5.08808886317648       -2.58275197727117
C            0.17313108303053        4.77626234978346       -1.73292991179054
C            1.12086341540239        3.85378908531450       -2.10359002023451
C            1.04778181480199        3.20947851251784       -3.32990417359300
H           -0.08225283559328        3.00791890145717       -5.12448036881556
H            0.22521575257021        5.26886802065308       -0.77822343869039
H            1.91941599485968        3.59860352760233       -1.42816002134704
H           -1.77945752575548        4.65869294440739       -4.47573269313519
C            2.07480942167995        2.19853908001331       -3.71436011004573
C            1.90071616112126        0.84180119383048       -3.03731198804722
H            3.17600152632584        2.66392163730636       -3.38979699852876
H            2.11629715091269        2.09125661227400       -4.80012357783578
C            2.00963611874525        0.97036010884637       -1.53454691413605
O           -1.82497226434052        6.02556769312506       -2.19312331279778
H           -2.51036093461437        6.12595009106206       -2.88854362739851
O            0.96889836146329        1.03700267029265       -0.91036950721355
N            0.62082188837575        0.22728794003264       -3.36750545296518
H            2.67249829481515        0.14537216283803       -3.38723190709955
H           -0.08627249227591        0.62207773213195       -2.75262656337561
H            0.35767438111804        0.41804860147882       -4.32724905470405
N            3.22164568511403        1.05151443331468       -0.87304708612758
C            4.57212431194440        1.25190381549010       -1.44442807952724
H            3.17967946630283        1.26611382282019        0.12143340727336
C            4.78580850096641        2.68780856414470       -1.85441648062614
O            5.45712542151063        3.40764477946358       -1.14745171982359
O            4.18408616260512        3.14451776980750       -3.06910618158865
H            4.29798910777864        4.15740718022685       -3.18537855899079
C            4.98911717484617        0.26863561321781       -2.54572547725635
H            5.27015532326880        1.09508932959986       -0.60717048054628
C            4.55059796157573       -1.14572315919332       -2.33287109832520
H            6.07814841486470        0.29042849816441       -2.66373674107210
H            4.60572506871172        0.62752882193913       -3.50491286984287
C            4.45615846633342       -1.88083736393988       -1.10923538772683
C            4.70704465676170       -1.56678979144009        0.23958049648429
C            4.49477965796405       -2.52237795460701        1.19435928558945
C            4.03692493546646       -3.80409925501470        0.85271520493816
C            3.79062494677165       -4.13946585223127       -0.44945886044770
C            4.00174211554640       -3.17359894408743       -1.44132851941843
H            5.05957502379980       -0.59037179773280        0.51314309889990
H            4.67879463274748       -2.28858132707451        2.22991337768827
H            3.87682750637353       -4.53290229915867        1.63006493939657
H            3.43928421107600       -5.11799204271857       -0.72361778730522
N            3.84714334462294       -3.22511963997062       -2.81361346699100
C            4.18139441586641       -2.00413723629811       -3.34001195510684
H            3.51484977683923       -4.04021412684645       -3.33235119773309
H            4.15161094321207       -1.76068161628518       -4.38981468602140
