48
 energy: -9.064036996285 gnorm: 0.000655031198 xtb: 6.6.0 (2ccbbd7)
C            4.80559332967800       -2.58112361264424        3.03118372499444
C            3.76325961387414       -1.87973128941335        2.47129096064158
C            6.12557728241453       -2.29601441317442        2.67864969038500
C            6.35551566717886       -1.28435178587235        1.74801714052887
C            5.30923201255400       -0.58592517645378        1.19705813552287
C            3.99858520134036       -0.86739069123605        1.55244263818662
H            2.74789802613883       -2.11716192305148        2.73921625696512
H            7.37054979870914       -1.06937860623591        1.46701322443989
H            5.50545460094329        0.18020132169110        0.46879994566929
H            4.61207756811781       -3.36196786119452        3.74468630160436
C            2.86355432686969       -0.15312304938797        0.88909742147274
C            2.36871120600381       -0.86412628814319       -0.38663186973051
H            3.16532506472245        0.87321841057950        0.66745933022351
H            2.03402101123279       -0.04191393875481        1.59606280578014
C            1.51028335384434        0.02799343184966       -1.26354988608163
O            7.19648448710438       -2.98396929377943        3.21658025814427
H            6.87729580789544       -3.65492526637018        3.85788826534005
O            0.35429587173508       -0.30449039170403       -1.44350566127023
N            3.41259824583520       -1.54221404827266       -1.15294377031348
H            1.69624517043379       -1.67959511933415       -0.06600469444495
H            4.05197349384978       -0.92415751099816       -1.63371946613281
H            3.96492716700182       -2.14578471782979       -0.55732962534000
N            2.01099645034026        1.17678898738272       -1.84123068328264
C            3.41065288489451        1.60753846113955       -1.79552798115539
H            1.45148609838605        1.64991856272382       -2.54763496902509
C            3.54605886218737        2.99814668543241       -1.24427055280622
O            4.79661467269541        3.49205006352114       -1.01573593167515
O            2.40619013505581        3.72043690582567       -0.97288499477613
H            1.61333601142104        3.13851851861733       -1.02147840520720
C            4.09924862975068        1.43580228301915       -3.17050888159425
H            3.92794858181041        0.95026138183035       -1.09034792583327
C            5.35903076715940        0.64478982484611       -3.04898170176779
H            4.31206497295705        2.41659837857229       -3.60825011695174
H            3.41654517899827        0.93109837935131       -3.86209730079067
C            6.37905737471539        0.88777301270038       -2.08696564180416
C            6.52944285090387        1.88225080539854       -1.11648826127471
C            7.61096979289004        1.83820426073694       -0.28927537771514
C            8.56392454918849        0.81066520589722       -0.40248769124211
C            8.43477521215421       -0.17721425420717       -1.34216209432618
C            7.32658827018524       -0.14610867175634       -2.19942200927512
H            5.63733646663779        2.73215250482813       -1.06083527970357
H            7.73332459557038        2.60148501047366        0.46079801094530
H            9.41101740427186        0.80314137598535        0.26318224822609
H            9.15699041928249       -0.96862844106986       -1.43184651523025
N            6.88991967193132       -0.98810231672473       -3.20843929027889
C            5.70701199946625       -0.50412805418780       -3.71603339139739
H            7.38163943220930       -1.82912137050194       -3.51601023731982
H            5.12750969691623       -0.97884581163941       -4.49143350488161
