48
Energy =
C    -0.7391109    0.1802918   -0.0384738 
C    -0.1364937    1.3954398   -0.0249524 
C    -1.0217128   -0.4551269    1.1297652 
C    -0.6957038    0.1298804    2.3049617 
C    -0.0927751    1.3456746    2.3246514 
C     0.1846229    1.9897116    1.1582940 
H     0.0956965    1.8846908   -0.9681391 
H    -0.9204280   -0.3904813    3.2298398 
H     0.1692718    1.7957072    3.2786556 
H    -0.9905325   -0.2829328   -0.9859297 
C     0.8815347    3.3334240    1.1772822 
C     2.4141042    3.1867088    1.3202493 
H     0.4920815    3.9364468    2.0273797 
H     0.6300983    3.9086321    0.2591982 
C     3.0332853    2.3256204    0.2268168 
O    -1.6448685   -1.7069858    1.1512233 
H    -1.8454015   -2.0860070    0.2322613 
O     3.5759217    1.0928090    0.5743254 
N     3.0422179    4.5186950    1.3706297 
H     2.6360742    2.6445440    2.2724559 
H     2.6844735    5.1346900    0.6021452 
H     2.7908799    4.9875953    2.2735583 
N     2.8981343    2.6575494   -1.1687565 
C     4.2136157    2.6150918   -1.8608085 
H     2.4864922    3.6158694   -1.2302133 
C     4.3637199    3.7526553   -2.8727606 
O     4.3395922    3.5080087   -4.2383164 
O     4.5215970    5.0700904   -2.4406407 
H     4.5461127    5.1452225   -1.4332289 
C     4.4530462    1.2046811   -2.4727745 
H     5.0516170    2.8041927   -1.1461695 
C     3.2313460    0.6070228   -3.1498409 
H     4.7519527    0.5140359   -1.6528973 
H     5.3188636    1.2276914   -3.1681695 
C     2.9886253    0.4923291   -4.4683845 
C     3.7414147    0.8651546   -5.5361999 
C     3.2640186    0.6146156   -6.7892832 
C     2.0594299   -0.0085891   -6.9576957 
C     1.3253371   -0.3864607   -5.8738892 
C     1.8150568   -0.1213831   -4.6445048 
H     4.7009318    1.3556623   -5.4117303 
H     3.8452483    0.9140744   -7.6582904 
H     1.6866731   -0.2059432   -7.9597046 
H     0.3717815   -0.8901699   -5.9898501 
N     1.2217852   -0.4589402   -3.3995474 
C     2.2056155    0.0429630   -2.4854537 
H     0.3111175   -0.9352015   -3.2095568 
H     2.1464388   -0.0461896   -1.4019177 
