48
Energy =
C    -1.8906970   -1.7802593   -6.5331799 
C    -1.0724649   -1.3773455   -5.5281028 
C    -2.8124648   -0.9239314   -7.0492982 
C    -2.9083752    0.3313928   -6.5557728 
C    -2.0926446    0.7399200   -5.5511560 
C    -1.1712498   -0.1147115   -5.0279729 
H    -0.3365419   -2.0713616   -5.1307440 
H    -3.6465539    1.0048209   -6.9772291 
H    -2.1828009    1.7538085   -5.1698922 
H    -1.8046145   -2.7881688   -6.9244591 
C    -0.2495162    0.3466455   -3.9205749 
C     0.9370529    1.1848364   -4.4556764 
H     0.1345701   -0.5188247   -3.3363217 
H    -0.8366708    0.9532948   -3.1939596 
C     1.7351137    1.8261665   -3.3280825 
O    -3.6701611   -1.3067430   -8.0856985 
H    -3.5381391   -2.2624191   -8.3983478 
O     1.4580168    1.5247569   -1.9979609 
N     1.8099781    0.3620716   -5.3133799 
H     0.5312749    2.0364523   -5.0502327 
H     2.0071414   -0.5588268   -4.8537838 
H     1.3164274    0.1559178   -6.2144384 
N     2.6947404    2.8497863   -3.6214448 
C     4.0645340    2.6502795   -3.1111090 
H     2.4086279    3.6468734   -4.2328776 
C     4.8847483    3.9353353   -3.2009481 
O     5.5263979    4.4171236   -2.0674789 
O     5.0484301    4.6214422   -4.4071143 
H     4.5503556    4.1777455   -5.1628528 
C     4.7328798    1.4807959   -3.8700582 
H     4.0108215    2.4024687   -2.0233630 
C     6.0787679    1.1234268   -3.2768335 
H     4.8167934    1.7129675   -4.9531767 
H     4.0801669    0.5832346   -3.8119322 
C     7.2865763    1.5567334   -3.6753661 
C     7.6251130    2.3830376   -4.6986005 
C     8.9435564    2.6777412   -4.8853411 
C     9.8941411    2.1485128   -4.0570807 
C     9.5314563    1.3224164   -3.0352107 
C     8.2208065    1.0454779   -2.8710589 
H     6.8753681    2.8157696   -5.3524586 
H     9.2382653    3.3446986   -5.6920765 
H    10.9423061    2.3936444   -4.2092263 
H    10.2717256    0.9003023   -2.3641905 
N     7.6366264    0.2260696   -1.8684416 
C     6.2464240    0.3378962   -2.1980804 
H     8.0987129   -0.3177969   -1.1040840 
H     5.4412061   -0.1283989   -1.6337286 
