48
Energy =
C     0.3034772    6.1517443   -0.3215205 
C     0.1923540    5.2094376   -1.2928506 
C    -0.5709978    6.1675207    0.7185714 
C    -1.5510671    5.2383352    0.7813698 
C    -1.6643364    4.2905241   -0.1831766 
C    -0.7925979    4.2685400   -1.2292588 
H     0.9044011    5.2124415   -2.1180264 
H    -2.2412360    5.2610460    1.6173443 
H    -2.4541884    3.5480349   -0.1085954 
H     1.0968494    6.8900514   -0.3771848 
C    -0.9095469    3.1919343   -2.2941693 
C     0.0572764    1.9947721   -2.0786734 
H    -0.7208629    3.6378921   -3.2983785 
H    -1.9515552    2.8073964   -2.3386816 
C     1.5201239    2.3708063   -2.3068335 
O    -0.4854155    7.1253261    1.7342784 
H     0.2903586    7.7702395    1.6272674 
O     1.8016391    3.3725169   -3.2300049 
N    -0.1731831    1.3705083   -0.7621080 
H    -0.1545302    1.2377544   -2.8676117 
H     0.0888440    2.0416002   -0.0018014 
H    -1.1886753    1.1444098   -0.6543323 
N     2.5786595    1.6004362   -1.6998437 
C     3.9899277    1.7300971   -2.1227191 
H     2.3435782    1.0066424   -0.8768812 
C     4.4320310    3.1313861   -2.5329675 
O     4.5974826    4.1034231   -1.5534943 
O     4.7759845    3.4393106   -3.8380988 
H     4.1546787    2.7376548   -4.5035935 
C     4.3395282    0.6091027   -3.1259414 
H     4.6251059    1.5575110   -1.2269591 
C     3.5532076    0.6785271   -4.4142107 
H     4.1975985   -0.3642367   -2.6183089 
H     5.4199637    0.6813602   -3.3865462 
C     2.9792081   -0.3525237   -5.0562372 
C     2.8299462   -1.6467642   -4.6599558 
C     2.2225792   -2.5262456   -5.5066117 
C     1.7850480   -2.1104547   -6.7304567 
C     1.9562279   -0.8144351   -7.1118013 
C     2.5569316    0.0407511   -6.2528500 
H     3.1734466   -1.9870530   -3.6919213 
H     2.0897006   -3.5616856   -5.2055208 
H     1.3051034   -2.8145902   -7.4044104 
H     1.6256475   -0.4687929   -8.0845585 
N     2.8444219    1.4078381   -6.5083966 
C     3.4455921    1.9367188   -5.2639713 
H     2.6711338    1.9140413   -7.4076900 
H     3.6100149    2.9455518   -5.6992744 
