48
Energy =
C     0.6581083   -1.8951970   -4.1898402 
C     0.8491470   -2.1039196   -2.8630332 
C    -0.4925630   -1.3225997   -4.6333711 
C    -1.4450143   -0.9616400   -3.7433432 
C    -1.2578416   -1.1646592   -2.4147843 
C    -0.1069508   -1.7356803   -1.9648996 
H     1.7781459   -2.5556862   -2.5237298 
H    -2.3589882   -0.5039452   -4.1058678 
H    -2.0338104   -0.8619093   -1.7169457 
H     1.4288709   -2.1848688   -4.8948350 
C     0.1235839   -1.9363935   -0.4807237 
C     0.8289553   -0.7397338    0.2069695 
H     0.7391962   -2.8517622   -0.3280984 
H    -0.8442754   -2.1417710    0.0267742 
C     2.1460163   -0.3756903   -0.4581134 
O    -0.7199815   -1.0957650   -5.9947985 
H     0.0507070   -1.3733924   -6.5910356 
O     3.2408364   -1.2164863   -0.2883461 
N    -0.0762960    0.4171003    0.3289284 
H     1.1184549   -1.0619847    1.2344270 
H    -0.3627980    0.7619047   -0.6178912 
H    -0.9520334    0.1346598    0.8289777 
N     2.2020519    0.6223077   -1.4830649 
C     3.1699348    1.7191337   -1.3041771 
H     1.5182363    0.5868293   -2.2736619 
C     2.6544033    3.0323181   -1.8819141 
O     1.6800317    3.0294379   -2.8727862 
O     3.2038874    4.2556011   -1.4940332 
H     3.9013317    4.1547209   -0.7714912 
C     4.5277391    1.3151117   -1.9240026 
H     3.3155660    1.9156939   -0.2169256 
C     4.3873568    0.7792476   -3.3347575 
H     4.9839993    0.5228977   -1.2876315 
H     5.2383660    2.1699254   -1.9087078 
C     4.3548333    1.4851702   -4.4768850 
C     4.4716956    2.8226492   -4.6815944 
C     4.3898482    3.2929231   -5.9592704 
C     4.1985218    2.4297846   -7.0024544 
C     4.0874257    1.0904713   -6.7740207 
C     4.1702705    0.6494189   -5.5013445 
H     4.6161326    3.5135280   -3.8564088 
H     4.4687003    4.3613566   -6.1470392 
H     4.1287713    2.8136511   -8.0173428 
H     3.9314877    0.3923988   -7.5893571 
N     4.0752710   -0.6954018   -5.0526606 
C     4.2150427   -0.5203068   -3.6362049 
H     3.9317871   -1.5708296   -5.6061966 
H     4.1635187   -1.3247821   -2.9036565 
