48
Energy =
C    -1.2949404   -1.4024659   -2.8977806 
C    -0.3958304   -2.4168181   -2.8348258 
C    -1.3961457   -0.5144971   -1.8731306 
C    -0.5941832   -0.6463880   -0.7927878 
C     0.3051052   -1.6595707   -0.7234571 
C     0.4127179   -2.5521180   -1.7466253 
H    -0.3229416   -3.1165217   -3.6649248 
H    -0.6814992    0.0708991    0.0156681 
H     0.9384548   -1.7491494    0.1547012 
H    -1.9327947   -1.3040678   -3.7697705 
C     1.4231908   -3.6810632   -1.6835910 
C     2.8116904   -3.3115604   -2.2633140 
H     1.0273115   -4.5599137   -2.2416907 
H     1.5384672   -4.0275624   -0.6331806 
C     2.7374966   -2.7908275   -3.6941353 
O    -2.3164925    0.5376188   -1.9031777 
H    -2.8663799    0.5805547   -2.7542930 
O     2.3897760   -3.6782879   -4.7063898 
N     3.5398909   -2.3996453   -1.3640465 
H     3.4001327   -4.2547859   -2.3389469 
H     3.0031209   -1.5106629   -1.2328022 
H     3.6446397   -2.8412975   -0.4204944 
N     2.6409885   -1.3865506   -3.9651375 
C     3.8897064   -0.6060244   -3.9772390 
H     1.6990314   -0.9554527   -4.0979570 
C     3.7923666    0.5805552   -3.0207158 
O     2.6183490    1.3249445   -2.9662049 
O     4.8707460    0.9788554   -2.2285939 
H     5.6847414    0.4003506   -2.3775710 
C     4.1591875   -0.1549024   -5.4242622 
H     4.7407508   -1.2428167   -3.6407526 
C     5.5119332    0.5075365   -5.5649615 
H     3.3493649    0.5222186   -5.7753179 
H     4.1281043   -1.0465368   -6.0901386 
C     5.7893705    1.8177296   -5.4630385 
C     4.9610650    2.8718439   -5.2450866 
C     5.5057913    4.1199854   -5.1722031 
C     6.8542861    4.2951360   -5.3166281 
C     7.6669615    3.2221236   -5.5328015 
C     7.1043949    1.9972335   -5.6011609 
H     3.8907517    2.7376026   -5.1197444 
H     4.8636931    4.9788032   -4.9912337 
H     7.2804725    5.2931953   -5.2529867 
H     8.7391370    3.3427742   -5.6435547 
N     7.7689888    0.7578148   -5.8029220 
C     6.6652722   -0.1552649   -5.7595879 
H     8.7870296    0.5644175   -5.9429214 
H     6.7558593   -1.2345393   -5.8578902 
