48
Energy =
C     1.8047815   -3.8181124    3.1869503 
C     2.0283584   -2.5641092    2.7184346 
C     2.8462285   -4.6704358    3.3825985 
C     4.1056627   -4.2606293    3.1087417 
C     4.3351197   -3.0077530    2.6404269 
C     3.2961788   -2.1502796    2.4448047 
H     1.1862634   -1.8931544    2.5658939 
H     4.9276060   -4.9497121    3.2691128 
H     5.3540956   -2.6989645    2.4226025 
H     0.7912731   -4.1377309    3.4039703 
C     3.5408532   -0.7592356    1.9038238 
C     3.2304966   -0.6580307    0.3889478 
H     4.5880350   -0.4369025    2.0974821 
H     2.9012427   -0.0431131    2.4704882 
C     3.2264262    0.7915171   -0.0766027 
O     2.6502672   -5.9702336    3.8604359 
H     1.6808043   -6.1968577    4.0534991 
O     2.5578586    1.7294905    0.6996095 
N     4.1827129   -1.4753917   -0.3834990 
H     2.1927468   -1.0176272    0.2000153 
H     5.1636809   -1.2376421   -0.1038085 
H     4.0341171   -2.4882189   -0.1627518 
N     3.4084664    1.1106898   -1.4601617 
C     4.7761697    1.4490418   -1.9008327 
H     2.6087109    0.9575575   -2.1122154 
C     4.9075776    2.9241523   -2.2815561 
O     5.9275122    3.3147180   -3.1422759 
O     4.1063176    3.9197037   -1.7242396 
H     3.4696881    3.5522569   -1.0299556 
C     5.2141219    0.4997419   -3.0441566 
H     5.4994618    1.3105447   -1.0646696 
C     4.3019697    0.5490354   -4.2556210 
H     5.2748952   -0.5373733   -2.6560182 
H     6.2499489    0.7567521   -3.3624018 
C     3.2887538   -0.2878468   -4.5391800 
C     2.8254703   -1.3636833   -3.8506489 
C     1.7617219   -2.0502297   -4.3575404 
C     1.1818893   -1.6567697   -5.5315964 
C     1.6623179   -0.5737073   -6.2055796 
C     2.7162786    0.0884023   -5.6843217 
H     3.2784693   -1.6764827   -2.9155261 
H     1.3723343   -2.9143358   -3.8243298 
H     0.3334046   -2.2085047   -5.9290491 
H     1.2125546   -0.2460747   -7.1369135 
N     3.3570070    1.2359960   -6.2207176 
C     4.3715208    1.4709819   -5.2339230 
H     3.1505115    1.7637618   -7.1003430 
H     5.0905730    2.2887372   -5.2740920 
