48
Energy =
C     7.7205168    0.5956398    1.5790613 
C     6.8195761   -0.2344806    2.1695607 
C     7.7589608    0.7081053    0.2234392 
C     6.9368579   -0.0571629   -0.5255628 
C     6.0890598   -0.9342937    0.0559928 
C     5.9786092   -0.9898152    1.4064225 
H     6.7601447   -0.2656125    3.2538777 
H     6.7708545    0.1385770   -1.6884535 
H     5.4363038   -1.5147871   -0.5829872 
H     8.3723604    1.2052398    2.1949266 
C     4.8877591   -1.8322322    2.0447626 
C     3.4308342   -1.4841161    1.5838722 
H     4.9336717   -1.7223912    3.1505242 
H     5.1205503   -2.9001124    1.8450418 
C     3.2622040   -0.0733062    1.0179062 
O     8.6027181    1.6213529   -0.4173455 
H     9.1737988    2.1650271    0.2202797 
O     3.3754397    1.0126139    1.8783591 
N     2.9192312   -2.5179366    0.6660288 
H     2.7759175   -1.4790982    2.4871670 
H     3.5281534   -2.5599203   -0.1855194 
H     2.9582778   -3.4560224    1.1280146 
N     2.7907443    0.1484753   -0.3267495 
C     3.6397417    1.1184440   -1.0738127 
H     1.8041760    0.4873335   -0.2345979 
C     2.9758750    2.4900601   -1.2286151 
O     2.3184973    2.8177215   -2.4081680 
O     3.0336367    3.4515803   -0.2246502 
H     3.4141481    3.0835583    0.6358336 
C     3.9974671    0.4861391   -2.4520528 
H     4.5870727    1.3362015   -0.5247258 
C     5.2911312    1.0291384   -3.0263711 
H     3.1680900    0.6242604   -3.1817939 
H     4.1018001   -0.6133684   -2.3308781 
C     6.6234835    0.3403050   -2.8825648 
C     6.7598190   -0.9625425   -3.6432614 
C     7.8350243   -1.1765988   -4.4289383 
C     8.7219415   -0.1894737   -4.7024264 
C     8.5452368    1.0808485   -4.2694440 
C     7.5398439    1.3947193   -3.4324605 
H     6.0601397   -1.7719981   -3.4524043 
H     7.9772714   -2.1570368   -4.8776063 
H     9.5482907   -0.4019394   -5.3758399 
H     9.1594201    1.8748570   -4.6807670 
N     6.8530514    2.6363675   -3.5552280 
C     5.4712885    2.3070584   -3.3863181 
H     7.2683484    3.5753768   -3.7546475 
H     4.6670311    3.0409754   -3.4490118 
