48
Energy =
C     0.1780492   -3.4037912    0.9111773 
C     0.3753005   -2.5892417    1.9784230 
C     1.2412720   -3.9010890    0.2252354 
C     2.4958206   -3.5737258    0.6090286 
C     2.6986505   -2.7600249    1.6751156 
C     1.6386833   -2.2632932    2.3706406 
H    -0.4849300   -2.2039663    2.5193711 
H     3.3368604   -3.9743833    0.0548396 
H     3.7152155   -2.5195612    1.9742723 
H    -0.8323553   -3.6575843    0.6096353 
C     1.8584946   -1.3703986    3.5768417 
C     2.0058102    0.1342066    3.2323016 
H     2.7663488   -1.7077306    4.1268181 
H     1.0195315   -1.4949550    4.2956313 
C     3.2733950    0.4522294    2.4475382 
O     1.0718314   -4.7432936   -0.8794680 
H     0.1045169   -4.9849821   -1.0654262 
O     4.4383706   -0.2484942    2.7501858 
N     0.7966105    0.6443778    2.5637316 
H     2.1283922    0.6823840    4.1936269 
H     0.6734034    0.1603754    1.6439732 
H    -0.0435001    0.4290580    3.1489810 
N     3.4190607    1.7390439    1.8291748 
C     4.3533243    1.8418279    0.6939746 
H     2.8126478    2.5340122    2.1342982 
C     5.4897839    2.8092998    1.0167466 
O     5.7671917    3.8705893    0.1602856 
O     6.3126575    2.6198029    2.1251588 
H     6.0048716    1.8286097    2.6774007 
C     3.5723865    2.2660581   -0.5683895 
H     4.8566883    0.8675805    0.5026204 
C     2.5262194    1.2484223   -0.9596844 
H     4.2712304    2.4209540   -1.4202017 
H     3.0910183    3.2527320   -0.3804139 
C     2.7376689    0.0559880   -1.5377090 
C     3.8994504   -0.5311841   -1.9235144 
C     3.8410082   -1.7679669   -2.4981572 
C     2.6352989   -2.3865604   -2.6810503 
C     1.4820467   -1.7741456   -2.2902948 
C     1.5665873   -0.5564903   -1.7171304 
H     4.8554061   -0.0356061   -1.7810069 
H     4.7555632   -2.2674804   -2.8116682 
H     2.5919776   -3.3780167   -3.1278657 
H     0.5195929   -2.2576303   -2.4212967 
N     0.4955119    0.2436415   -1.2382631 
C     1.2048236    1.3958814   -0.7637168 
H    -0.5309090    0.0419349   -1.2304085 
H     0.7357967    2.2556383   -0.2888161 
