48
Energy =
C     0.8005831    0.4710264   -5.5778358 
C     0.0656853    0.6636878   -4.4531982 
C     1.5518121    1.4849306   -6.0853701 
C     1.5593486    2.6866019   -5.4648818 
C     0.8275203    2.8836124   -4.3412903 
C     0.0721802    1.8734426   -3.8285291 
H    -0.5237282   -0.1573317   -4.0536187 
H     2.1702843    3.4866277   -5.8690169 
H     0.8651734    3.8515510   -3.8463728 
H     0.7901333   -0.4978812   -6.0654759 
C    -0.7211765    2.0795268   -2.5550413 
C     0.0106870    1.5021178   -1.3214023 
H    -1.7148812    1.5938267   -2.6630336 
H    -0.9138419    3.1637481   -2.3919508 
C     1.3597749    2.1646505   -1.0833143 
O     2.3344274    1.3141646   -7.2322392 
H     2.2615420    0.3900210   -7.6437873 
O     1.5209702    3.3764176   -1.2951908 
N    -0.8413824    1.6215780   -0.1291763 
H     0.2140828    0.4221449   -1.5039095 
H    -1.0583859    2.6326671    0.0432331 
H    -1.7491815    1.1268245   -0.2920174 
N     2.5070689    1.3744108   -0.7320598 
C     3.7568771    1.8059953   -1.3812842 
H     2.4212670    0.5425255   -0.1055336 
C     3.5834572    3.2191549   -1.9564936 
O     4.5577128    3.7835874   -2.7727917 
O     2.5621840    3.8714310   -1.6830719 
H     2.2136151    3.8494023   -0.7453012 
C     4.1270974    0.7559168   -2.4497291 
H     4.5542597    1.8723187   -0.6101444 
C     5.5644676    0.8865238   -2.9122724 
H     3.4129138    0.8212703   -3.2989037 
H     3.9993182   -0.2617242   -2.0199730 
C     6.0062332    1.3161416   -4.1068289 
C     5.3140514    1.7417616   -5.1938834 
C     6.0104657    2.1175633   -6.3035779 
C     7.3765696    2.0652636   -6.3116088 
C     8.0533751    1.6361990   -5.2087111 
C     7.3401585    1.2691139   -4.1228199 
H     4.2338799    1.7933983   -5.1926461 
H     5.4721492    2.4617692   -7.1842766 
H     7.9243997    2.3688892   -7.1999329 
H     9.1368502    1.5890274   -5.1982494 
N     7.8483482    0.7868209   -2.8869360 
C     6.6329521    0.5630124   -2.1611683 
H     8.8400107    0.6318056   -2.5937327 
H     6.5870536    0.1789452   -1.1450832 
