48
Energy =
C     3.2409215    5.2185885    0.0624319 
C     2.6724493    4.1818217    0.7301123 
C     2.4607606    6.1954592   -0.4726300 
C     1.1165542    6.1256848   -0.3378137 
C     0.5430963    5.0828830    0.3149089 
C     1.3196026    4.1055944    0.8564461 
H     3.2998680    3.3916953    1.1378095 
H     0.5052680    6.9076874   -0.7745223 
H    -0.5398092    5.0314479    0.3904308 
H     4.3193943    5.2596354   -0.0556382 
C     0.6836794    2.9043016    1.5227571 
C     0.4384117    1.7618545    0.5092538 
H    -0.2797246    3.2052335    1.9899762 
H     1.3281608    2.5343642    2.3524488 
C     1.7442952    1.2280327   -0.0568771 
O     3.0123669    7.2786610   -1.1644270 
H     4.0120537    7.1967599   -1.3223637 
O     2.6378769    0.5852376    0.8018878 
N    -0.3333124    0.6834978    1.1434279 
H    -0.1494211    2.1571753   -0.3517789 
H     0.2215714    0.2829420    1.9387676 
H    -1.2231663    1.0657507    1.5393056 
N     2.2011451    1.7294775   -1.3293261 
C     3.6623102    1.5791303   -1.5362872 
H     1.6582908    1.2353895   -2.0731927 
C     4.1931733    2.6782697   -2.4504907 
O     5.2975376    3.4155866   -2.0359592 
O     3.6405064    2.9476376   -3.7011832 
H     2.8458449    2.3565206   -3.8869195 
C     4.0255715    0.1185069   -1.9608300 
H     4.2009929    1.7916228   -0.5835396 
C     4.9216263    0.0199735   -3.1789947 
H     3.1128993   -0.4958996   -2.1079986 
H     4.5373023   -0.3790402   -1.1064956 
C     4.5464801   -0.2499878   -4.4400648 
C     3.3154850   -0.5236535   -4.9458421 
C     3.2014613   -0.7521258   -6.2856234 
C     4.3046392   -0.7005889   -7.0917846 
C     5.5291379   -0.4189919   -6.5632015 
C     5.6174312   -0.2000916   -5.2345548 
H     2.4345278   -0.5560252   -4.3133173 
H     2.2273034   -0.9710428   -6.7160803 
H     4.2044639   -0.8784609   -8.1594856 
H     6.4126612   -0.3652645   -7.1900174 
N     6.7860396    0.1237882   -4.4946836 
C     6.2448093    0.2607975   -3.1730205 
H     7.7726909    0.2205441   -4.8278455 
H     6.8131848    0.5790162   -2.2997998 
