48
Energy =
C     0.5702510   -3.3282915   -0.4906560 
C     0.1881214   -2.2348535   -1.1972921 
C     0.3716203   -3.3767368    0.8537529 
C    -0.2070356   -2.3282715    1.4823147 
C    -0.5901625   -1.2315197    0.7804345 
C    -0.4007434   -1.1814643   -0.5661933 
H     0.3644363   -2.2044782   -2.2702677 
H    -0.3561375   -2.3777138    2.5556859 
H    -1.0458315   -0.3946064    1.3029290 
H     1.0379402   -4.1619341   -1.0028840 
C    -0.7897024    0.0560387   -1.3458246 
C     0.3172451    1.1317080   -1.2931209 
H    -1.7364793    0.4703318   -0.9357073 
H    -0.9973264   -0.2076019   -2.4080974 
C     1.6265457    0.6094977   -1.8780201 
O     0.7547536   -4.4873280    1.6119444 
H     1.1764934   -5.2318032    1.0679868 
O     1.6201830    0.1794115   -3.1988948 
N    -0.1278751    2.3433383   -1.9988082 
H     0.5071149    1.4014900   -0.2293218 
H    -0.2875167    2.1215830   -3.0116977 
H    -1.0340189    2.6811871   -1.5987696 
N     2.8344648    0.6599242   -1.0772519 
C     4.0959589   -0.0427402   -1.4740072 
H     2.5648026    0.3198705   -0.1245355 
C     5.3037443    0.8861638   -1.5076693 
O     6.5716923    0.3224506   -1.5625638 
O     5.1977089    2.2769199   -1.5642953 
H     4.2371636    2.5847671   -1.5132485 
C     4.0383608   -1.0300490   -2.6780428 
H     4.3638730   -0.7094611   -0.6194488 
C     4.0413192   -0.4723202   -4.1053037 
H     3.1501246   -1.6777237   -2.5247241 
H     4.9200993   -1.7057093   -2.6076615 
C     3.5731279   -1.1340130   -5.1820606 
C     2.9874682   -2.3593328   -5.2646059 
C     2.6027477   -2.8162073   -6.4907763 
C     2.8086725   -2.0549021   -7.6067158 
C     3.4012963   -0.8325223   -7.5036010 
C     3.7701715   -0.4010168   -6.2794001 
H     2.8207534   -2.9717053   -4.3847890 
H     2.1291671   -3.7910361   -6.5814830 
H     2.4996398   -2.4257026   -8.5811983 
H     3.5757939   -0.2172534   -8.3802428 
N     4.4138990    0.8214975   -5.9660603 
C     4.5604664    0.6975485   -4.5439479 
H     4.7108254    1.5998284   -6.5994687 
H     5.0397045    1.4585522   -3.9419648 
