48
Energy =
C    -2.8168596   -3.8043689    0.0555602 
C    -2.6917803   -2.6229763   -0.6068868 
C    -1.7242131   -4.3959233    0.6147212 
C    -0.5137577   -3.8025863    0.5062819 
C    -0.3966745   -2.6270301   -0.1572176 
C    -1.4747628   -2.0214093   -0.7035093 
H    -3.5704858   -2.1696812   -1.0588819 
H     0.3511894   -4.2778062    0.9556988 
H     0.5950286   -2.0121593   -0.2956218 
H    -3.7903864   -4.2771210    0.1330692 
C    -1.2821239   -0.7317692   -1.4878112 
C    -0.2961057    0.2849151   -0.8273497 
H    -2.2702173   -0.2349713   -1.6146818 
H    -0.9232158   -0.9924910   -2.5080684 
C     1.1808094   -0.1636971   -0.8356868 
O    -1.8165517   -5.6088597    1.3022510 
H    -2.7554970   -5.9911457    1.3449106 
O     1.5332543   -1.4484401   -0.4197000 
N    -0.4558387    1.5944910   -1.4867279 
H    -0.5559981    0.3862272    0.2562393 
H    -0.4427480    1.4842133   -2.5300426 
H    -1.3902727    2.0038803   -1.2384599 
N     2.2236178    0.8151124   -0.9205286 
C     3.5948288    0.4174196   -0.5160265 
H     1.9956568    1.7778217   -1.2710608 
C     4.4250090    1.6307709   -0.0827602 
O     4.8177110    1.7824306    1.2484432 
O     4.7406519    2.6133202   -1.0470835 
H     4.4887618    2.2047810   -2.0722033 
C     4.2819880   -0.4061776   -1.6508333 
H     3.5441281   -0.2331381    0.3865991 
C     4.5080190    0.3261865   -2.9702649 
H     3.6882663   -1.3202016   -1.8610028 
H     5.2673687   -0.7502820   -1.2655007 
C     5.4111842   -0.0430756   -3.8839251 
C     5.9869016   -1.2608322   -4.0669756 
C     6.9348282   -1.3928073   -5.0369730 
C     7.3085987   -0.3135604   -5.7858507 
C     6.7392062    0.9040590   -5.5648696 
C     5.7889647    1.0093935   -4.6105811 
H     5.7021249   -2.1223117   -3.4666956 
H     7.4043118   -2.3594436   -5.2097051 
H     8.0761032   -0.4223983   -6.5495578 
H     7.0521010    1.7773197   -6.1298576 
N     5.1691239    2.2127805   -4.1821563 
C     4.2219162    1.7912882   -3.1716378 
H     5.2846514    3.1868757   -4.5316008 
H     3.1733668    1.9701850   -3.4935157 
