48
Energy =
C    -3.9979560    1.3323551   -2.9337434 
C    -3.1365548    2.3716433   -2.7946548 
C    -3.5414719    0.1146634   -3.3318145 
C    -2.2238776   -0.0548820   -3.5860008 
C    -1.3577324    0.9807141   -3.4480178 
C    -1.8123296    2.2037838   -3.0610757 
H    -3.5149171    3.3363408   -2.4667073 
H    -1.8722920   -1.0320231   -3.8985883 
H    -0.3007497    0.8230523   -3.6482011 
H    -5.0518262    1.4770045   -2.7221611 
C    -0.8431654    3.3479085   -2.8747247 
C    -0.2565493    3.3688755   -1.4343427 
H    -1.3469736    4.3111418   -3.1125078 
H    -0.0358051    3.2688935   -3.6388477 
C     1.2668022    3.3268131   -1.4579486 
O    -4.4017884   -0.9775603   -3.4835261 
H    -5.3724829   -0.7689705   -3.2764252 
O     1.9405103    4.4319718   -1.9608313 
N    -0.7416484    4.5487514   -0.7013553 
H    -0.5849416    2.4675263   -0.8654880 
H    -0.4052449    5.4266380   -1.1681140 
H    -1.7885115    4.5618921   -0.6992642 
N     1.9450926    2.0644403   -1.2588174 
C     3.4058595    1.8493942   -1.4297714 
H     1.3445536    1.2267179   -1.0847914 
C     4.2747194    3.0902655   -1.6970609 
O     5.0589884    3.5958729   -0.6652777 
O     4.3833978    3.6723428   -2.9622971 
H     3.6237456    3.3797852   -3.5556512 
C     3.6201341    0.7233454   -2.4711346 
H     3.7822132    1.4712298   -0.4524282 
C     5.0518067    0.2255917   -2.4813105 
H     3.3031115    1.0600075   -3.4797887 
H     2.9627922   -0.1392168   -2.2221624 
C     6.0118469    0.5049354   -3.3804140 
C     5.9650902    1.2643299   -4.5057036 
C     7.0995266    1.3903306   -5.2521515 
C     8.2514345    0.7608768   -4.8704468 
C     8.2759595    0.0013725   -3.7391292 
C     7.1411498   -0.1072942   -3.0167003 
H     5.0569802    1.7694700   -4.8140689 
H     7.0880721    1.9995269   -6.1526999 
H     9.1521651    0.8697037   -5.4692142 
H     9.1820904   -0.5024031   -3.4205126 
N     6.9587554   -0.8421372   -1.8150731 
C     5.5802077   -0.5711296   -1.5348143 
H     7.6454792   -1.4263472   -1.2853102 
H     5.0445147   -0.9512706   -0.6680708 
