48
Energy =
C     2.6612337   -4.0183148    3.0139653 
C     3.0749374   -3.0786233    2.1266786 
C     1.8001732   -3.6837522    4.0120040 
C     1.3588475   -2.4093985    4.1148116 
C     1.7693773   -1.4658330    3.2301359 
C     2.6337157   -1.7950789    2.2317411 
H     3.7606381   -3.3605705    1.3333128 
H     0.6717217   -2.1548594    4.9144973 
H     1.4017175   -0.4472370    3.3275985 
H     3.0196442   -5.0378729    2.9232909 
C     3.0751095   -0.7494437    1.2332385 
C     1.9924084   -0.4669193    0.1669351 
H     4.0227836   -1.0524380    0.7387991 
H     3.3117863    0.1927532    1.7804428 
C     2.3929224    0.7141585   -0.7001556 
O     1.3528839   -4.6282201    4.9413697 
H     1.7335426   -5.5577329    4.8025353 
O     2.3657830    1.9874748   -0.1421253 
N     1.7039716   -1.6738156   -0.6294539 
H     1.0575154   -0.1304659    0.6757198 
H     2.5989843   -2.1476568   -0.8884045 
H     1.1668837   -2.3527774   -0.0399965 
N     2.7934914    0.5621917   -2.0707023 
C     4.0399512    1.2327979   -2.4876093 
H     2.2855371   -0.1185352   -2.6784862 
C     3.7315091    2.3614441   -3.4696178 
O     4.1027616    2.2455256   -4.8056015 
O     3.0833946    3.5248789   -3.0619638 
H     2.7799252    3.4565354   -2.0998371 
C     5.0134586    0.2006964   -3.0999729 
H     4.5442098    1.7198334   -1.6200545 
C     5.4433667   -0.8538720   -2.1052327 
H     5.9260822    0.7267817   -3.4627174 
H     4.5526394   -0.2529144   -4.0024883 
C     5.1295369   -2.1606237   -2.1139980 
C     4.3475806   -2.8688828   -2.9702102 
C     4.1807146   -4.2038665   -2.7437226 
C     4.7936721   -4.8062290   -1.6802746 
C     5.5773623   -4.0773600   -0.8365574 
C     5.7240958   -2.7582384   -1.0792022 
H     3.8541127   -2.3973118   -3.8133130 
H     3.5588552   -4.7925343   -3.4145987 
H     4.6597638   -5.8719963   -1.5094954 
H     6.0747688   -4.5394590    0.0099200 
N     6.4819604   -1.8277685   -0.3207181 
C     6.2478007   -0.6186371   -1.0542449 
H     7.0503397   -1.9798452    0.5448601 
H     6.6730123    0.3500793   -0.7962163 
