48
 energy: -9.294142839323 gnorm: 0.000526497182 xtb: 6.6.0 (2ccbbd7)
C            4.68245700579298        5.81370457587655        1.04629560720583
C            4.47814430548140        4.45771017524717        1.12803658961359
C            3.72078541298848        6.70578512253275        1.52155507199177
C            2.55183394401535        6.18353685681810        2.07484133160471
C            2.35537512509251        4.82542705982926        2.15417840451673
C            3.31717819789038        3.94232237390998        1.68593085845035
H            5.21664938199555        3.77665802555191        0.73697843627923
H            1.81069003055700        6.87155895517556        2.44036609267579
H            1.44912619614227        4.43671539741600        2.58580603956376
H            5.58722544022637        6.19894296033714        0.61121288942007
C            3.11513906038805        2.46088834964969        1.76389029413774
C            2.97657608817177        1.80212830190189        0.38918586647116
H            2.22841555069109        2.22694878801825        2.35986775069808
H            3.96048271445365        2.01544462554835        2.29900307240819
C            3.00498503408948        0.29808178648631        0.51954666763117
O            3.89538493868448        8.07502459677602        1.45729323793082
H            4.76390868622698        8.28385868341730        1.05084178640629
O            1.98678291554973       -0.22947225301716        0.91960187342536
N            1.74181451280741        2.16590351926109       -0.28362709666572
H            3.80553562617767        2.13785253381295       -0.24655987325948
H            0.99234427681439        1.67184658650234        0.18840456208379
H            1.57083310727744        3.15894039394320       -0.19137216684417
N            4.12853136272983       -0.43450314745699        0.19461018487596
C            5.30943468831577        0.10231114235972       -0.49907762379686
H            4.04065815692375       -1.44846070687591        0.16436732555110
C            5.85918188983335        1.28981553960519        0.26567557074270
O            6.13323619250011        2.31050738664486       -0.32784908643673
O            5.97331558971939        1.11055838183612        1.60396058807630
H            5.66929128369506        0.20559849612239        1.84940659789771
C            5.00934383797771        0.43348349798964       -1.96213022129050
H            6.08553681347738       -0.67708339764267       -0.47854243971165
C            4.48693567851337       -0.73362561229381       -2.72538112652232
H            5.91315910350813        0.82151384254939       -2.44271993102170
H            4.28043720231057        1.24513415257778       -2.01371069673233
C            3.12149735394617       -1.13657382416520       -2.82057938301477
C            1.92559817232314       -0.59990030130439       -2.31377586643649
C            0.75418329976236       -1.25614231620009       -2.56825477348897
C            0.73105410094377       -2.43899178113601       -3.32445171209508
C            1.88210331132477       -2.97857444667346       -3.82933790610182
C            3.09439890837996       -2.32512834472119       -3.57553306709277
H            1.94289438805691        0.29386268370647       -1.71373339171508
H           -0.16832614202077       -0.86548789205468       -2.17170226425037
H           -0.21013769216323       -2.93183583000644       -3.50373605026063
H            1.87517740203644       -3.88706519759280       -4.40438464519604
N            4.39957313694637       -2.62922337107925       -3.92073939691478
C            5.23151040378609       -1.67046760794354       -3.39791081709692
H            4.68289439171154       -3.45213866898439       -4.45571237344701
H            6.30523557561753       -1.66456047956120       -3.49392797003052
