48
Energy =
C     1.6653884   -1.3863264    2.5352561 
C     1.0188061   -1.0742303    1.3843834 
C     2.1187553   -2.6508916    2.7426076 
C     1.9184778   -3.5962190    1.7965120 
C     1.2739412   -3.2893451    0.6422450 
C     0.8238754   -2.0225859    0.4257097 
H     0.6662636   -0.0560567    1.2314721 
H     2.2812675   -4.6021208    1.9765795 
H     1.1225300   -4.0633379   -0.1053983 
H     1.8199280   -0.6198191    3.2867683 
C     0.1145436   -1.6694777   -0.8669734 
C     1.0328005   -1.0476687   -1.9461173 
H    -0.7050952   -0.9488021   -0.6437339 
H    -0.3853516   -2.5678957   -1.2891149 
C     1.7057431    0.2484676   -1.4825206 
O     2.7935247   -3.0049957    3.9153870 
H     2.8915386   -2.2430071    4.5776370 
O     0.8940623    1.3675279   -1.3453698 
N     1.9792948   -2.0406410   -2.4907835 
H     0.3613046   -0.7311109   -2.7775069 
H     2.4400350   -2.5722593   -1.7165738 
H     1.4360130   -2.7503455   -3.0381197 
N     2.9648136    0.2404261   -0.7807906 
C     4.0341370    0.9875860   -1.4774400 
H     3.2641351   -0.7445358   -0.6122333 
C     3.8298193    2.5107241   -1.4109499 
O     2.9967492    3.1630103   -2.3108414 
O     4.4992611    3.2882638   -0.4607913 
H     4.9184248    2.7319797    0.2690700 
C     4.3884401    0.3807509   -2.8754975 
H     4.9517944    0.8158767   -0.8728099 
C     3.7686836    1.0680630   -4.0786757 
H     4.1135531   -0.6972650   -2.8949443 
H     5.4926394    0.3918035   -3.0053343 
C     4.2571402    2.1369615   -4.7321771 
C     5.3624502    2.8841687   -4.4760915 
C     5.6396646    3.9356878   -5.2995063 
C     4.8196235    4.2204370   -6.3560803 
C     3.7161276    3.4563763   -6.5944258 
C     3.4623295    2.4227453   -5.7647198 
H     6.0055524    2.6717488   -3.6274718 
H     6.5111521    4.5573608   -5.1080145 
H     5.0434526    5.0644685   -7.0038141 
H     3.0519243    3.6722432   -7.4244420 
N     2.3767482    1.5109158   -5.8384389 
C     2.6508952    0.6671819   -4.7117985 
H     1.6025791    1.4542162   -6.5389967 
H     2.0523452   -0.1956667   -4.4381848 
