48
Energy =
C     0.6554694   -2.0791176   -0.9140893 
C     0.0635558   -0.9650269   -0.4142114 
C     1.7901666   -2.5643478   -0.3439076 
C     2.3244698   -1.9311025    0.7241222 
C     1.7428872   -0.8113345    1.2213654 
C     0.6062175   -0.3188294    0.6539080 
H    -0.8359861   -0.5841844   -0.8879328 
H     3.2277630   -2.3277948    1.1729119 
H     2.1979236   -0.3128338    2.0724476 
H     0.2220413   -2.5746609   -1.7760486 
C    -0.0339987    0.9496142    1.1906798 
C     0.0997808    2.1924538    0.2534615 
H     0.4079994    1.2044343    2.1792660 
H    -1.1029180    0.7320971    1.4067695 
C     1.2349770    2.0844401   -0.7658853 
O     2.4315838   -3.7042704   -0.8404382 
H     1.9391073   -4.1429182   -1.6116626 
O     0.9395379    1.6789726   -2.0570949 
N    -1.1890867    2.4912573   -0.3931183 
H     0.3656057    3.0766578    0.8764614 
H    -1.4590520    1.7035027   -1.0279848 
H    -1.9419216    2.6069360    0.3242938 
N     2.5978169    2.1186789   -0.3027681 
C     3.7652389    1.9988657   -1.2049525 
H     2.7507490    2.2006492    0.7271692 
C     4.1387070    3.2963467   -1.9401105 
O     3.5042502    3.6892592   -3.1041223 
O     5.1172973    4.1593698   -1.4352099 
H     5.4515207    3.9018192   -0.5201815 
C     3.8833756    0.6174605   -1.9268081 
H     4.6167832    1.9043762   -0.4962836 
C     3.2238489    0.2557346   -3.2624024 
H     3.5361385   -0.1366692   -1.1891898 
H     4.9693755    0.4220366   -2.0763713 
C     3.2676527   -0.9879603   -3.7835636 
C     3.8253895   -2.1200852   -3.2756664 
C     3.7346645   -3.2730464   -3.9979065 
C     3.0983910   -3.2814408   -5.2070410 
C     2.5495556   -2.1363314   -5.7007225 
C     2.6511725   -1.0093285   -4.9654481 
H     4.3273011   -2.1258673   -2.3124312 
H     4.1682638   -4.1904800   -3.6056602 
H     3.0303802   -4.2044723   -5.7780122 
H     2.0426978   -2.1238338   -6.6601885 
N     2.1581954    0.2730819   -5.3006844 
C     2.5689863    1.0336357   -4.1534529 
H     1.6364374    0.5911355   -6.1502838 
H     2.2780646    2.0629786   -4.0131247 
