48
Energy =
C    -0.0057422   -0.2561546    3.9521015 
C     0.8955239   -0.7362759    3.0563235 
C     0.4058117    0.5359307    4.9772231 
C     1.7167585    0.8429468    5.0996804 
C     2.6213004    0.3677775    4.2064854 
C     2.2161381   -0.4258655    3.1764549 
H     0.5539959   -1.3706425    2.2395313 
H     2.0315346    1.4757273    5.9226166 
H     3.6697046    0.6296071    4.3222861 
H    -1.0565755   -0.5057120    3.8470195 
C     3.2257249   -0.9471651    2.1713474 
C     3.3281530   -0.0898351    0.8823227 
H     2.9686244   -1.9953336    1.8940921 
H     4.2313046   -1.0107517    2.6422309 
C     2.0767459   -0.1727918    0.0040395 
O    -0.4953523    1.0461936    5.9162441 
H    -1.4601570    0.7798366    5.7520934 
O     1.3194753   -1.3381435    0.0026523 
N     3.7070711    1.2996293    1.2032160 
H     4.1320910   -0.5385234    0.2550028 
H     2.9650960    1.7473678    1.7922726 
H     4.5893837    1.2989795    1.7673616 
N     1.6514580    0.9077012   -0.8422861 
C     2.6644332    1.2820388   -1.8608012 
H     1.4443556    1.7073259   -0.2026095 
C     2.4867085    2.7401458   -2.2865889 
O     1.8136986    3.0562936   -3.4611592 
O     2.9716013    3.7816697   -1.4953138 
H     3.4117650    3.4398018   -0.6533109 
C     2.5559877    0.3301207   -3.0777297 
H     3.6986823    1.2346394   -1.4526675 
C     3.2434362   -0.9981580   -2.8395339 
H     3.0285370    0.7949304   -3.9726723 
H     1.4842488    0.1971259   -3.3377776 
C     2.6713533   -2.2084855   -2.7138445 
C     1.3617843   -2.5676450   -2.7480050 
C     1.0454809   -3.8861244   -2.5993834 
C     2.0306234   -4.8177026   -2.4243206 
C     3.3384442   -4.4356073   -2.3924648 
C     3.6260460   -3.1249568   -2.5377530 
H     0.5738676   -1.8306523   -2.8628238 
H     0.0030861   -4.1943538   -2.6104188 
H     1.7694385   -5.8659834   -2.3044670 
H     4.1321913   -5.1613863   -2.2532617 
N     4.9150554   -2.5273599   -2.5416949 
C     4.5770654   -1.1502577   -2.7461079 
H     5.8529914   -2.9746982   -2.4237754 
H     5.3044094   -0.3455869   -2.8286563 
