48
Energy =
C    -0.6067089   -2.9437578    0.2616458 
C    -0.6861097   -2.3632930   -0.9626574 
C     0.2697715   -3.9604433    0.4810231 
C     1.0625001   -4.3887585   -0.5274893 
C     0.9867767   -3.8125481   -1.7535004 
C     0.1053441   -2.7997234   -1.9802521 
H    -1.3843431   -1.5451080   -1.1209166 
H     1.7630721   -5.1951511   -0.3391373 
H     1.6454823   -4.1575602   -2.5481740 
H    -1.2428541   -2.5897914    1.0658135 
C     0.0446622   -2.1288399   -3.3349462 
C     0.9428786   -0.8740306   -3.3910021 
H    -1.0072339   -1.8463148   -3.5594263 
H     0.3543430   -2.8424373   -4.1324210 
C     2.4029504   -1.2214666   -3.1563930 
O     0.3789749   -4.5776190    1.7310845 
H    -0.2473972   -4.1990762    2.4330865 
O     3.0650926   -2.0708744   -4.0381472 
N     0.7737064   -0.1957449   -4.6850910 
H     0.6420103   -0.1689437   -2.5805265 
H     1.0249577   -0.8530078   -5.4634146 
H    -0.2282119    0.0804639   -4.8123548 
N     3.0313609   -0.8907156   -1.9110703 
C     4.1139707    0.1127442   -1.8930757 
H     2.7186011   -1.3832800   -1.0439733 
C     3.5838568    1.5452074   -1.9756416 
O     3.7615233    2.3924798   -0.8888508 
O     2.9434527    2.0496070   -3.1090493 
H     2.8144506    1.3458915   -3.8189369 
C     5.1891381   -0.2166384   -2.9564769 
H     4.6046397    0.0422829   -0.8950026 
C     6.4675486    0.5586869   -2.7227697 
H     4.8062308   -0.0462255   -3.9858058 
H     5.4134703   -1.3068438   -2.9088171 
C     6.8116068    1.7429566   -3.2560556 
C     6.1486226    2.5277553   -4.1442095 
C     6.7222649    3.7054656   -4.5239418 
C     7.9369201    4.0773169   -4.0180311 
C     8.5850614    3.2736957   -3.1279806 
C     7.9969685    2.1136202   -2.7676049 
H     5.1823546    2.2417391   -4.5455424 
H     6.2070075    4.3544642   -5.2282467 
H     8.3851799    5.0196790   -4.3227653 
H     9.5467424    3.5557627   -2.7132051 
N     8.4956042    1.1471070   -1.8539700 
C     7.4415693    0.1767090   -1.8779481 
H     9.3914437    1.1449697   -1.3146781 
H     7.4291751   -0.7317958   -1.2795088 
