48
Energy =
C     3.4817597   -2.6526154    4.3788685 
C     3.4308955   -1.6710202    3.4429581 
C     3.9346308   -3.8910858    4.0465583 
C     4.3327951   -4.1388561    2.7780556 
C     4.2841630   -3.1612439    1.8380900 
C     3.8362270   -1.9186081    2.1670376 
H     3.0632020   -0.6862842    3.7221062 
H     4.6891955   -5.1314128    2.5252392 
H     4.6028025   -3.3827459    0.8230986 
H     3.1580467   -2.4450437    5.3931071 
C     3.7621984   -0.8289674    1.1215658 
C     2.3276182   -0.6455724    0.5738960 
H     4.4638094   -1.0385692    0.2859414 
H     4.1078867    0.1276409    1.5778065 
C     2.2310820    0.6102927   -0.2699027 
O     3.9994687   -4.9249607    4.9862564 
H     3.6828225   -4.6603472    5.9127157 
O     2.2280548    1.8445992    0.3700137 
N     1.8911649   -1.8366259   -0.1764885 
H     1.6259155   -0.4683390    1.4231109 
H     2.6251352   -2.1163270   -0.8682909 
H     1.7647128   -2.6385095    0.4853198 
N     2.4979321    0.5729962   -1.6765549 
C     3.7846109    1.1212941   -2.1335841 
H     1.7999408    0.1280957   -2.3147444 
C     3.5506997    2.3246410   -3.0430436 
O     3.6325366    2.1901028   -4.4244409 
O     3.2048673    3.5674341   -2.5166196 
H     2.9901499    3.4979717   -1.5296382 
C     4.5874772   -0.0111681   -2.8109864 
H     4.3724953    1.5046161   -1.2665010 
C     6.0421658    0.3638488   -3.0092004 
H     4.1048754   -0.2955116   -3.7709332 
H     4.5501076   -0.9185375   -2.1712785 
C     6.6665617    0.6587891   -4.1634567 
C     6.1906744    0.6937832   -5.4357539 
C     7.0490093    1.0273486   -6.4417406 
C     8.3571402    1.3140913   -6.1677160 
C     8.8152276    1.2698510   -4.8850645 
C     7.9466688    0.9395044   -3.9063126 
H     5.1526106    0.4743823   -5.6636350 
H     6.6876142    1.0710910   -7.4666398 
H     9.0335474    1.5822069   -6.9756579 
H     9.8498977    1.4960595   -4.6504617 
N     8.2234960    0.8351076   -2.5171379 
C     6.9380397    0.4586495   -2.0096467 
H     9.1243452    0.9864845   -2.0075076 
H     6.7224407    0.2801004   -0.9587622 
