48
Energy =
C    -0.7477345    0.6159890   -7.6285718 
C    -0.1757707    0.7438066   -6.4045419 
C    -1.2941504    1.6984977   -8.2442068 
C    -1.2637081    2.9027839   -7.6296688 
C    -0.6927371    3.0365534   -6.4057853 
C    -0.1477009    1.9552305   -5.7837293 
H     0.2627446   -0.1292670   -5.9273682 
H    -1.7021732    3.7582434   -8.1317237 
H    -0.6762410    4.0135972   -5.9291096 
H    -0.7651383   -0.3537112   -8.1141673 
C     0.5031443    2.1080882   -4.4266374 
C     1.9324505    2.6835331   -4.5332909 
H     0.5380636    1.1286808   -3.8992028 
H    -0.1325801    2.7760300   -3.8011701 
C     2.3928930    3.2345368   -3.1972891 
O    -1.8897351    1.6018073   -9.5060690 
H    -1.8773417    0.6658211   -9.8962734 
O     2.5574644    4.6064743   -3.0557273 
N     2.8503570    1.6410606   -5.0207345 
H     1.9327744    3.5586487   -5.2296899 
H     2.5597182    1.3531511   -5.9841681 
H     3.8031584    2.0592637   -5.1367869 
N     2.4779976    2.3961784   -2.0338440 
C     3.7448338    2.2757685   -1.2743145 
H     1.6481543    1.8165653   -1.7763375 
C     3.6375311    2.9470762    0.0906773 
O     3.9946252    2.2301023    1.2247113 
O     3.2789545    4.2849612    0.2377295 
H     2.9739227    4.6713245   -0.6451401 
C     4.9785718    2.7810300   -2.0656516 
H     3.9023635    1.1943018   -1.0602688 
C     6.2719995    2.4480040   -1.3539499 
H     4.9142673    3.8820125   -2.2171430 
H     4.9904490    2.3213217   -3.0748795 
C     6.9767288    1.3106335   -1.4583267 
C     6.7458978    0.2096680   -2.2195067 
C     7.6214851   -0.8325045   -2.1328088 
C     8.6991398   -0.7617092   -1.2937551 
C     8.9071279    0.3516146   -0.5347751 
C     8.0291348    1.3708856   -0.6406322 
H     5.8860275    0.1462734   -2.8800724 
H     7.4591894   -1.7262033   -2.7306011 
H     9.3900244   -1.5984259   -1.2271791 
H     9.7520943    0.4205355    0.1419665 
N     8.0516812    2.6008426    0.0698074 
C     6.8714720    3.2359190   -0.4431411 
H     8.7475837    2.9497370    0.7684878 
H     6.4866351    4.1978949   -0.1037520 
