48
Energy =
C     1.5745797   -2.9332189    3.0161161 
C     1.1521838   -2.3562798    1.8629738 
C     2.8222496   -3.4677212    3.0957918 
C     3.6401221   -3.4190683    2.0198326 
C     3.2232665   -2.8431003    0.8637467 
C     1.9734552   -2.3106675    0.7775891 
H     0.1540452   -1.9280355    1.8175746 
H     4.6337607   -3.8465145    2.0984303 
H     3.8968600   -2.8118817    0.0121450 
H     0.9122175   -2.9642897    3.8743684 
C     1.5139978   -1.6560608   -0.5061789 
C     2.1014821   -0.2335421   -0.6806253 
H     0.4019787   -1.6039494   -0.5468334 
H     1.8146789   -2.3063852   -1.3558202 
C     1.8429365    0.2962844   -2.0965712 
O     3.2884592   -4.0710935    4.2682627 
H     2.6198004   -4.0611945    5.0308551 
O     0.5847773    0.8349406   -2.3449431 
N     1.5372347    0.6789167    0.3274697 
H     3.2009671   -0.2539542   -0.5252495 
H     0.4912826    0.6951145    0.2599178 
H     1.7965515    0.3653104    1.2913653 
N     2.5324845   -0.2363031   -3.2492663 
C     3.9734227   -0.5381062   -3.0718314 
H     2.0028183   -1.0866807   -3.5427524 
C     4.7920637    0.6587318   -2.5762579 
O     4.3966088    1.9569182   -2.8662600 
O     5.9842448    0.4663809   -1.8753052 
H     6.2081571   -0.5096679   -1.7559770 
C     4.5432906   -1.0752592   -4.4035655 
H     4.0920862   -1.3545495   -2.3265301 
C     4.3986077   -0.0835530   -5.5425940 
H     4.0131217   -2.0153148   -4.6731529 
H     5.6125025   -1.3550803   -4.2806872 
C     5.2790705    0.8605647   -5.9164735 
C     6.5010522    1.1674196   -5.4080989 
C     7.1999724    2.1937478   -5.9726209 
C     6.6754765    2.8894979   -7.0264296 
C     5.4475907    2.5641357   -7.5209066 
C     4.7751861    1.5454465   -6.9452932 
H     6.9165053    0.6278683   -4.5629222 
H     8.1747141    2.4662870   -5.5748524 
H     7.2356556    3.7108401   -7.4663565 
H     5.0129818    3.1102071   -8.3512068 
N     3.4893244    1.0588257   -7.3011819 
C     3.3185778    0.0101596   -6.3387246 
H     2.8486292    1.3702861   -8.0666858 
H     2.4257341   -0.6033597   -6.2513289 
