48
Energy =
C    -1.6224821    4.0400328    1.0820791 
C    -0.8038868    4.1206748    0.0026947 
C    -2.8852026    3.5553039    0.9475892 
C    -3.3206955    3.1552157   -0.2674637 
C    -2.5070215    3.2328532   -1.3495163 
C    -1.2359675    3.7082149   -1.2224579 
H     0.2046766    4.5062298    0.1320032 
H    -4.3299339    2.7717128   -0.3631179 
H    -2.8824169    2.9115964   -2.3160845 
H    -1.2625204    4.3623243    2.0531393 
C    -0.3259130    3.8080140   -2.4356548 
C     0.2969646    2.4609137   -2.8848748 
H     0.4937508    4.5403513   -2.2455660 
H    -0.9095568    4.2325228   -3.2809883 
C     1.3742668    1.9377715   -1.9351633 
O    -3.7557735    3.4620448    2.0384815 
H    -3.3480911    3.7649975    2.9164341 
O     1.3834710    2.2766808   -0.5873703 
N    -0.7585095    1.4612232   -3.1270021 
H     0.8318657    2.6636652   -3.8461613 
H    -1.3467649    1.7739801   -3.9355109 
H    -0.3228869    0.5566196   -3.4271506 
N     2.5515722    1.3324925   -2.4869705 
C     3.7253987    2.2231658   -2.5703118 
H     2.4898987    0.3193884   -2.6331859 
C     3.4795050    3.2849991   -3.6358070 
O     3.1994160    4.5887324   -3.2468129 
O     3.4005745    2.9582529   -4.9881175 
H     3.5980392    1.9787824   -5.1423604 
C     5.1543913    1.5636081   -2.7283597 
H     3.7712055    2.8126093   -1.6203173 
C     5.5554968    0.0826329   -2.8577882 
H     5.7403366    1.9296615   -1.8544532 
H     5.6506652    2.0607660   -3.5935520 
C     6.8518596   -0.2917344   -2.9672481 
C     7.9765670    0.4767171   -2.9858122 
C     9.1875138   -0.1386816   -3.1072782 
C     9.2625872   -1.4989485   -3.2078298 
C     8.1270718   -2.2507766   -3.1878842 
C     6.9416570   -1.6169319   -3.0668917 
H     7.9280870    1.5585994   -2.9084980 
H    10.0975658    0.4564363   -3.1252126 
H    10.2311228   -1.9831751   -3.3049073 
H     8.1679193   -3.3318181   -3.2672941 
N     5.6608656   -2.2106599   -3.0276234 
C     4.8216802   -1.0570507   -2.8930199 
H     5.3988676   -3.2216222   -3.0832138 
H     3.7625610   -1.1769824   -2.8360001 
