48
Energy =
C    -2.6162145    2.3068925   -2.5458197 
C    -1.6973987    1.8595773   -1.6527220 
C    -2.2442950    3.1544428   -3.5419687 
C    -0.9550066    3.5510206   -3.6345324 
C    -0.0328624    3.1081556   -2.7430525 
C    -0.3959812    2.2511774   -1.7497829 
H    -2.0104533    1.1855535   -0.8604296 
H    -0.6704788    4.2291571   -4.4308245 
H     0.9939518    3.4483185   -2.8312180 
H    -3.6483277    1.9848627   -2.4600024 
C     0.6269690    1.7492089   -0.7509849 
C     0.9246818    0.2384653   -0.9128590 
H     0.2329387    1.9470405    0.2692287 
H     1.5778675    2.3243552   -0.8313359 
C     1.7203156   -0.0596625   -2.1765242 
O    -3.1669887    3.6353595   -4.4773151 
H    -4.1073088    3.2826100   -4.3400589 
O     1.0873412   -0.0387592   -3.4141946 
N     1.6099034   -0.2594107    0.2951833 
H    -0.0289666   -0.3239868   -1.0383700 
H     2.4525916    0.3337485    0.4939081 
H     0.9715824   -0.1713361    1.1212209 
N     3.0422963   -0.6061899   -2.1009961 
C     4.1409274    0.0742954   -2.8117888 
H     3.1823658   -1.4795098   -1.5461643 
C     4.1331845    1.5901659   -2.6137057 
O     4.9867426    2.1465583   -1.6697631 
O     3.3028333    2.4441536   -3.3400789 
H     2.6394523    1.9370761   -3.9093252 
C     4.1641308   -0.3470674   -4.2988489 
H     5.1005085   -0.2538865   -2.3507672 
C     4.5332973   -1.8068873   -4.4501497 
H     4.9139638    0.2679587   -4.8457146 
H     3.1851573   -0.1433801   -4.7825403 
C     3.6991593   -2.8580154   -4.5452695 
C     2.3420606   -2.9021694   -4.5749371 
C     1.7333758   -4.1197611   -4.6718329 
C     2.4806523   -5.2620731   -4.7376171 
C     3.8413289   -5.1952841   -4.7070995 
C     4.4202487   -3.9801513   -4.6114857 
H     1.7428467   -1.9987982   -4.5243003 
H     0.6472999   -4.1825099   -4.6958985 
H     1.9875076   -6.2287136   -4.8138203 
H     4.4488220   -6.0932316   -4.7567232 
N     5.8110439   -3.6973665   -4.5568384 
C     5.7967353   -2.2686909   -4.4472685 
H     6.6243286   -4.3560866   -4.5868125 
H     6.6885280   -1.6507934   -4.3577265 
