48
 energy: -9.054274693615 gnorm: 0.000886104513 xtb: 6.6.0 (2ccbbd7)
C           -3.75074726764432        2.36203656044854        0.04398831752642
C           -2.45390612508805        2.31019311230556       -0.40977046467856
C           -4.08913111094757        1.82817331924504        1.28783413142447
C           -3.08026089412598        1.24354703098595        2.05248646224648
C           -1.78583091390751        1.19715469836497        1.59254713247269
C           -1.45197546553570        1.73379251696435        0.35721847269509
H           -2.20564464769103        2.71848162369886       -1.37399808383700
H           -3.34109755321900        0.83105608395106        3.01053615355280
H           -1.01758772592538        0.74235203844244        2.19394555484303
H           -4.51862380464412        2.81359260906248       -0.55797482205639
C           -0.05084609771102        1.64816446869977       -0.16319358903799
C            0.12729188118124        0.52509652240043       -1.19281551027541
H            0.63404607468937        1.48604571736197        0.67339724032526
H            0.23993038374059        2.61098714940304       -0.59388031351029
C            1.48250171919712        0.61570660005216       -1.93691130970574
O           -5.38261857764649        1.86461923535214        1.77352853797642
H           -5.97048971755253        2.31646901126693        1.12986223814345
O            1.51226601406349       -0.27566076998362       -3.08559054064213
N            0.01773907399613       -0.78845024121305       -0.58311460053334
H           -0.66599050778477        0.59991055818757       -1.95079933276377
H            0.87845221557593       -0.99088477975111       -0.08169543815993
H           -0.75147991718916       -0.81774611688856        0.07506783727167
N            2.62063067938613        0.38348678300852       -1.00497635001218
C            4.02801176246111        0.58465083781456       -1.40916538429432
H            2.47904916426071        1.02148794359553       -0.21273300485794
C            4.32509440268281        2.07564061912018       -1.41042682732880
O            3.55783830938920        2.78033347856833       -0.78856222176915
O            5.41254849354729        2.53307639100140       -2.08172281469980
H            5.92713470180540        1.80145978219655       -2.48472745334938
C            4.39716170809890       -0.13776099627674       -2.71159343524778
H            4.63508284766231        0.14973099734864       -0.59920962880078
C            3.69484140150832        0.38874144476944       -3.90574610390185
H            4.13159292701243       -1.19525407406161       -2.60651923627107
H            5.47784313736255       -0.11603241716643       -2.88120231083900
C            2.22328815673373        0.72816827909589       -3.86587663774229
C            1.67278248067782        1.84015690901487       -2.90467161820188
C            0.41650448075080        2.47989600600151       -3.42434251088356
C           -0.00916919932050        2.34848605313708       -4.68705422805486
C            0.73258279345211        1.62021540414819       -5.67817517333221
C            1.81251626426390        0.89870371115224       -5.30966388890318
H            2.43882428706276        2.55772860433524       -2.59027909774485
H           -0.16540784460813        3.06574479869621       -2.73437371136686
H           -0.91725301366589        2.84100052714177       -4.99336925176565
H            0.50562735299365        1.74246629445764       -6.72254177429634
N            2.92043822036367        0.48290000521474       -6.04132532321526
C            4.02031066264594        0.20775591127488       -5.20246249205030
H            3.01387875479839        0.64454125937379       -7.04404531144006
H            4.96487866547671       -0.17191869105478       -5.55410618888570
