48
Energy =
C     1.7699813    3.3523758    4.6823525 
C     1.6222447    2.9081362    3.4085512 
C     2.8335541    4.1316505    5.0161009 
C     3.7447286    4.4604483    4.0723368 
C     3.6025275    4.0194770    2.7964246 
C     2.5351187    3.2441464    2.4567736 
H     0.7703591    2.2805027    3.1590046 
H     4.5905990    5.0790630    4.3548515 
H     4.3503430    4.2841041    2.0463697 
H     1.0366414    3.0806273    5.4341787 
C     2.3877780    2.7356121    1.0413646 
C     2.8694219    1.2695880    0.8851828 
H     2.9547900    3.3993556    0.3548644 
H     1.3220378    2.8166077    0.7303062 
C     2.7109307    0.7478384   -0.5447831 
O     3.0153995    4.6053238    6.3183982 
H     2.2935547    4.3145147    6.9689389 
O     1.8567009   -0.3272322   -0.7580918 
N     4.2511454    1.1048552    1.3673688 
H     2.2060314    0.6133737    1.4990799 
H     4.8518694    1.9027548    1.0501201 
H     4.2659421    1.1102898    2.4141534 
N     3.1601355    1.4803548   -1.7014282 
C     4.6328176    1.4615839   -1.8831621 
H     2.7685458    2.4465581   -1.6777646 
C     5.2402517    2.8652238   -1.8684686 
O     5.2066516    3.6163686   -0.6995229 
O     5.7757719    3.4512949   -3.0031230 
H     5.0113787    3.7852462   -3.5698089 
C     4.9773898    0.6336078   -3.1434263 
H     5.1427498    0.9375973   -1.0441897 
C     4.2424647    1.0695213   -4.3981496 
H     4.7043161   -0.4261587   -2.9428644 
H     6.0761097    0.6397429   -3.3006827 
C     4.7599059    1.6722381   -5.4831430 
C     6.0312784    2.0796627   -5.7358529 
C     6.2978596    2.6736267   -6.9343239 
C     5.3032140    2.8464390   -7.8561309 
C     4.0350555    2.4283098   -7.5833434 
C     3.7955571    1.8467942   -6.3892036 
H     6.8223139    1.9586802   -5.0017559 
H     7.3063262    3.0149831   -7.1545736 
H     5.5237950    3.3204771   -8.8089689 
H     3.2340713    2.5565280   -8.3030477 
N     2.5561596    1.3414097   -5.9171084 
C     2.9346750    0.8505881   -4.6244428 
H     1.6213571    1.3302408   -6.3843141 
H     2.2600150    0.3514759   -3.9297427 
