48
Energy =
C    -3.7936972    2.9543543   -1.3050125 
C    -2.5058415    3.0097608   -1.7288879 
C    -4.0836956    2.4946619   -0.0585576 
C    -3.0813429    2.0926468    0.7554787 
C    -1.7913166    2.1458469    0.3370110 
C    -1.4956137    2.6094837   -0.9083001 
H    -2.2894831    3.3757191   -2.7299839 
H    -3.3271446    1.7259307    1.7460524 
H    -1.0011648    1.8116217    1.0039057 
H    -4.5905243    3.2769909   -1.9664593 
C    -0.0626584    2.6547648   -1.3900372 
C     0.2793385    1.4582678   -2.3053220 
H     0.6409152    2.6921290   -0.5308319 
H     0.0950544    3.6042605   -1.9528983 
C     1.6022909    1.6861718   -3.0093076 
O    -5.3997931    2.4229586    0.4092432 
H    -6.0920181    2.7446644   -0.2587025 
O     1.5812430    2.3450288   -4.2300494 
N     0.2757675    0.1962962   -1.5468313 
H    -0.4739219    1.3970838   -3.1285266 
H     0.8712108    0.2803737   -0.6899783 
H    -0.6995106   -0.0194103   -1.2315986 
N     2.8499505    1.5344332   -2.3103590 
C     4.0494139    1.1124508   -3.0655177 
H     2.8767713    1.6704104   -1.2757885 
C     4.5164527    2.1735143   -4.0540343 
O     5.8801205    2.3683130   -4.2378178 
O     3.6224008    2.8921878   -4.8356810 
H     2.6043396    2.6187151   -4.5330005 
C     3.8204916   -0.2471221   -3.7643883 
H     4.8949273    1.0081938   -2.3491749 
C     3.7091065   -1.3752080   -2.7647947 
H     4.6652188   -0.4672150   -4.4550074 
H     2.9070944   -0.2015392   -4.4006953 
C     4.7183242   -1.9555185   -2.0965318 
C     6.0529310   -1.7097979   -2.1504124 
C     6.8800330   -2.4496118   -1.3571899 
C     6.3671328   -3.4131528   -0.5329483 
C     5.0235843   -3.6431744   -0.4975365 
C     4.2262867   -2.8980669   -1.2914436 
H     6.4627470   -0.9471966   -2.8072410 
H     7.9530055   -2.2730751   -1.3817695 
H     7.0331225   -3.9992878    0.0955463 
H     4.6003068   -4.4042855    0.1491272 
N     2.8128062   -2.9759017   -1.4060930 
C     2.5590001   -1.9541842   -2.3803562 
H     2.1388064   -3.6066113   -0.9146837 
H     1.5714650   -1.6890378   -2.7526584 
