48
Energy =
C     1.0274262    7.5377468   -3.8755184 
C     0.8616959    6.3884460   -3.1727602 
C     2.2191552    7.8093643   -4.4720813 
C     3.2383863    6.9273756   -4.3614722 
C     3.0791640    5.7773314   -3.6601220 
C     1.8885014    5.5016972   -3.0578049 
H    -0.0988582    6.1841183   -2.7061630 
H     4.1842369    7.1521861   -4.8429145 
H     3.9126192    5.0801165   -3.5874503 
H     0.2040308    8.2387964   -3.9608843 
C     1.7066136    4.2104226   -2.2909132 
C     1.4839421    3.0030262   -3.2357810 
H     0.8614728    4.2869259   -1.5708791 
H     2.6108969    4.0469657   -1.6596705 
C     1.7154835    1.6878366   -2.4978325 
O     2.4211573    8.9837935   -5.2039117 
H     1.6121060    9.5941999   -5.2385251 
O     1.1182376    1.4848766   -1.2587143 
N     0.1311059    3.0407609   -3.8172987 
H     2.2299853    3.0433534   -4.0643917 
H    -0.5897226    3.0265089   -3.0546956 
H    -0.0014227    3.9208277   -4.3691502 
N     2.6178737    0.6874542   -3.0035368 
C     3.9918393    0.8801417   -2.4838399 
H     2.5880906    0.7011485   -4.0477032 
C     4.6253378    2.1933622   -2.9374156 
O     4.9937013    3.1324293   -1.9839428 
O     4.7674909    2.5254616   -4.2845755 
H     4.5773737    1.7419075   -4.8923245 
C     4.8598415   -0.3313581   -2.8826931 
H     3.9594517    0.9260508   -1.3677479 
C     4.3963985   -1.5903667   -2.1845660 
H     5.9266205   -0.1439935   -2.6253639 
H     4.8247969   -0.4838846   -3.9836742 
C     4.6903404   -1.9688554   -0.9309297 
C     5.4706760   -1.3631913    0.0008668 
C     5.6021883   -1.9581596    1.2213924 
C     4.9575640   -3.1344148    1.4895391 
C     4.1765396   -3.7221785    0.5388137 
C     4.0639976   -3.1152035   -0.6612776 
H     5.9774979   -0.4258622   -0.2088505 
H     6.2195909   -1.4926115    1.9860167 
H     5.0643171   -3.6010066    2.4656513 
H     3.6534405   -4.6516222    0.7363222 
N     3.2964620   -3.5492703   -1.7750555 
C     3.5602205   -2.4991334   -2.7154843 
H     2.7055984   -4.4052662   -1.8816072 
H     3.1193299   -2.4354519   -3.7072714 
