48
 energy: -9.285880572599 gnorm: 0.000854325232 xtb: 6.6.0 (2ccbbd7)
C            1.47219388913992       -1.42691554172369        3.94283760187660
C            2.47650709560733       -0.65546188400121        3.40728499266855
C            0.70845309321642       -2.26370283869325        3.12886583491486
C            0.98978095488915       -2.29134608321437        1.76399307120987
C            1.99452248312081       -1.51665292980029        1.23824261990534
C            2.75631620193265       -0.68922431948065        2.04914350171257
H            3.05984029262728       -0.01596785174441        4.04689134093576
H            0.39671182479034       -2.93012551769453        1.13429812551990
H            2.20304954189041       -1.56050508952579        0.18410239453382
H            1.26583973878815       -1.39162697030885        4.99752866730156
C            3.82616566301063        0.17888548983272        1.46357261954925
C            3.34225302992695        1.59491044407576        1.11412028251016
H            4.22250923022800       -0.30772483378896        0.56760136508846
H            4.66456869332261        0.23847990301431        2.16463269465395
C            2.20014522205407        1.55321694700550        0.12595068143561
O           -0.30279720346998       -3.05801792419090        3.63434174644146
H           -0.40229054545075       -2.90573797144673        4.59858057119247
O            1.07531658725130        1.45171253991088        0.57073372405846
N            2.89287299879776        2.33245644336668        2.28367149701538
H            4.16816256264655        2.17718650745438        0.67644209140416
H            1.94796352165305        2.02730347957040        2.50277143416561
H            3.49001957170902        2.16430226523682        3.08457719245094
N            2.43636290286323        1.61865493441025       -1.22909212148651
C            3.75600757394301        1.55455554489719       -1.86381826197535
H            1.64895501143705        1.56926901326967       -1.87023341335278
C            4.20411291971905        2.92141904785321       -2.33599726247673
O            5.17565960548193        2.97089030954562       -3.05924773031308
O            3.49656909463995        3.99061398263348       -1.89757999950554
H            2.76140422113422        3.70457483406596       -1.30937299181580
C            3.75159356865628        0.54625245568655       -3.00913026758956
H            4.48002706767555        1.21038323842394       -1.11610202164210
C            3.44048669516944       -0.82767654605327       -2.52572699157638
H            4.72350884967294        0.55679897358795       -3.51328052419550
H            3.01771864849433        0.85450787782425       -3.75918725799715
C            4.33314161638152       -1.68312603824050       -1.81581678407807
C            5.68454463838808       -1.55868021454467       -1.45155323611586
C            6.25971172640934       -2.56191034849421       -0.72206893365180
C            5.52462213600769       -3.69650321963802       -0.34075919182766
C            4.20795190769334       -3.83764413320717       -0.68433926070028
C            3.59911535396319       -2.82103601524534       -1.43047716112336
H            6.24135264412998       -0.68663087689973       -1.74550629781056
H            7.29480923742016       -2.48262889370650       -0.43409307880822
H            6.00880105005854       -4.46863597254729        0.23381714306157
H            3.63634339473715       -4.69927227787386       -0.38960012467127
N            2.30014601123008       -2.64755996061105       -1.87673022006723
C            2.21323187146108       -1.44379520554093       -2.53131799475866
H            1.54710974996303       -3.32691477173487       -1.75313847157011
H            1.30964690919586       -1.03764609797242       -2.95695280948292
