48
 energy: -9.172670520892 gnorm: 0.000855749363 xtb: 6.6.0 (2ccbbd7)
C            0.67752765033811        0.19834792428628        3.65984351023204
C           -0.07568917182215        0.68002776959619        2.61482470370619
C            1.99542617625400        0.62056943042758        3.84043003158599
C            2.52547825505173        1.53733530240770        2.93292143994213
C            1.76597266969677        2.01212446465386        1.89094021453262
C            0.45346305600294        1.59852524783308        1.71919891875570
H           -1.08954222578220        0.34320625228216        2.48256878962229
H            3.54276145605588        1.85884296210597        3.06717469488527
H            2.18909677557670        2.70200320299649        1.18193287651410
H            0.25703184379604       -0.51170795566580        4.34928608919355
C           -0.35295055702229        2.09632312957508        0.55956042164989
C            0.00869186919184        1.40286908132673       -0.76230368229765
H           -0.20145886607652        3.17597439665779        0.45532259334168
H           -1.41770154361463        1.95818122975216        0.77300091918605
C            1.39455951131589        1.75383382243193       -1.19710611457573
O            2.77743790692030        0.15516074766886        4.88120482947282
H            2.26097566309792       -0.47224735225534        5.43243083640109
O            1.83752860962791        3.08370101167100       -1.09009615770399
N           -0.14806300004736       -0.04505332387938       -0.67604810560842
H           -0.66830726834944        1.75825535960123       -1.55677947495328
H            0.50698574937703       -0.40377534183904        0.00572025790167
H           -1.07683003438825       -0.28136556202976       -0.35077422219856
N            2.21103375582226        0.77173031456526       -1.72592567468163
C            3.45024588880074        1.12771634716829       -2.41678587656916
H            1.74709238378941       -0.04720010650010       -2.12465080209658
C            3.23534632096728        2.44144475288966       -3.13280710244512
O            3.37385079651116        2.52081212551283       -4.34960739009682
O            2.85977597365809        3.50661657021786       -2.29131914958532
H            2.98273985677812        3.21164403849556       -1.18450583776173
C            3.95396634792731        0.01206404573694       -3.35446046405070
H            4.20322770486005        1.28922382939012       -1.63188910677100
C            5.44391351411908       -0.06555200462026       -3.45950798429383
H            3.51831341829477        0.15892250368526       -4.34791395199966
H            3.58061524479301       -0.95506190211833       -3.00199541578026
C            6.31367540230500        0.75648009531466       -4.23945398429417
C            6.09440178710258        1.85126539154275       -5.09304592285212
C            7.16325258902511        2.42451295432742       -5.72320858877583
C            8.46644401985937        1.94100261452371       -5.52445542412413
C            8.70961938440485        0.88677089516466       -4.68708477383338
C            7.62577207989450        0.28678372915242       -4.03301737064138
H            5.09995675025440        2.24355098603427       -5.20295215631267
H            7.00549825916169        3.26708333147435       -6.37594456691932
H            9.28837072499662        2.41390290198219       -6.03613050923833
H            9.70449298030165        0.51291133514214       -4.52395225057586
N            7.55417518844783       -0.76986835586279       -3.14326202114022
C            6.24009420823254       -0.97055001744157       -2.80083274044826
H            8.35863547271919       -1.30361838569933       -2.80895456201165
H            5.89103092592356       -1.73093647851572       -2.12129498151529
