48
Energy =
C     2.8334677    2.9857633    2.4112885 
C     1.7586935    3.1209701    1.5938431 
C     3.4850696    1.7940494    2.4940088 
C     3.0545571    0.7451764    1.7556378 
C     1.9791740    0.8749955    0.9395337 
C     1.3213313    2.0633379    0.8582138 
H     1.2521372    4.0803237    1.5299348 
H     3.5841609   -0.1987748    1.8205393 
H     1.6583454    0.0252768    0.3392020 
H     3.1728828    3.8334694    2.9956571 
C     0.1503779    2.2182511   -0.0868364 
C     0.6007780    2.7356561   -1.4717635 
H    -0.5975271    2.9128264    0.3535258 
H    -0.3689467    1.2404070   -0.2121958 
C     1.5924892    1.7783892   -2.1327204 
O     4.5988437    1.6226802    3.3252817 
H     4.8643936    2.4557254    3.8386765 
O     1.1380884    0.5127152   -2.4826630 
N    -0.5754537    2.9532609   -2.3282795 
H     1.1145277    3.7137101   -1.3403442 
H    -1.0671357    2.0375658   -2.4707011 
H    -1.2486185    3.5979375   -1.8525757 
N     3.0074698    2.0497871   -2.0297007 
C     4.1075435    1.2095269   -2.5754252 
H     3.2668405    2.9785727   -1.6271144 
C     5.1427472    2.0932447   -3.2604826 
O     6.4824086    1.9666164   -2.9166141 
O     4.7862925    3.0025791   -4.2566361 
H     3.7910327    2.9906144   -4.4295967 
C     3.6809345    0.0584236   -3.5399489 
H     4.6450161    0.7830506   -1.7019247 
C     3.4697725   -1.2732049   -2.8298792 
H     4.4878072   -0.1281315   -4.2846948 
H     2.8114677    0.3716710   -4.1495323 
C     2.4432138   -2.1352572   -2.9779210 
C     1.3064367   -2.0316161   -3.7148157 
C     0.4278203   -3.0762344   -3.7130770 
C     0.6995087   -4.2040247   -2.9913805 
C     1.8484200   -4.2931964   -2.2651583 
C     2.6964757   -3.2434533   -2.2757675 
H     1.0781657   -1.1283916   -4.2704763 
H    -0.4966566   -3.0092042   -4.2822904 
H    -0.0038902   -5.0334983   -2.9944254 
H     2.0828780   -5.1844929   -1.6921604 
N     3.9519423   -3.1585187   -1.6211288 
C     4.3942382   -1.8643996   -2.0458658 
H     4.4286417   -3.8553927   -1.0027372 
H     5.3741672   -1.4525085   -1.8126736 
