48
 energy: -8.851336333063 gnorm: 0.000827364045 xtb: 6.6.0 (2ccbbd7)
C            6.87085013313642        0.80683595025928        2.48604643265664
C            5.62134958676239        1.42043967153480        2.41912425551587
C            7.57183549955185        0.42806401376124        1.31874439363607
C            7.02751094115871        0.69399345299485        0.09237617736384
C            5.72074057049513        1.40915400186253       -0.07810296280507
C            5.02412720565636        1.72007632358436        1.23643760827574
H            5.10378362863482        1.65195128917016        3.33413793474717
H            7.59221562204905        0.39226704024854       -0.77144568612943
H            5.56710647118803        1.43420406036767       -1.40294723473528
H            7.31079819654415        0.59365842370916        3.44317113960676
C            3.64391682964277        2.28476404212613        1.20026837525618
C            2.55940751543589        1.22774333272846        0.87656876293041
H            3.59538510578614        3.09622236899404        0.46567842662068
H            3.43443910661474        2.76054959174173        2.16476858892832
C            2.01136351996242        1.32865440365975       -0.53419845204954
O            8.79492343420705       -0.21283373426708        1.39463424676314
H            9.06454640088625       -0.31560714434344        2.33250966097300
O            0.80604768935321        1.45231851265036       -0.64417776631882
N            2.95791138301871       -0.14128251720323        1.17445513859232
H            1.68357167910588        1.42466224389983        1.52116465581155
H            3.62010534966661       -0.48083447764167        0.49003959213755
H            3.39567735265456       -0.20049503429542        2.08550168198307
N            2.79693073459456        1.26459777025479       -1.66790060275277
C            4.28738344863928        1.41944086592932       -1.76845589341989
H            2.33314880300082        1.46821225248319       -2.54678259607242
C            4.49138067713355        2.95919529349864       -1.96730745235422
O            3.85511404482534        3.55002626367938       -2.80789786758115
O            5.42039139284866        3.49753838405722       -1.15339431796224
H            5.77246336334278        2.63647506219793       -0.52639909483051
C            4.68362119605499        0.61151085705109       -3.07315469275005
H            4.69061662022801        0.84027906602228       -0.65902314525279
C            3.67439712181128        0.62819258131529       -4.17594482475310
H            4.86760629624146       -0.43279661490588       -2.80134244476920
H            5.62717016024305        0.98547930366432       -3.48634938952581
C            3.11273368011598       -0.50927776582268       -4.83167004676160
C            3.28905573813034       -1.89449798473624       -4.66885124175978
C            2.57511558854446       -2.74562555001073       -5.46615616204290
C            1.68005084090368       -2.25904733496561       -6.43262853116663
C            1.49080859049435       -0.91599115743098       -6.60911053779789
C            2.21226137459801       -0.02720536772476       -5.80258664189123
H            3.96994681881890       -2.26688617120295       -3.92468707250707
H            2.69757446687337       -3.80984765560489       -5.35076425333494
H            1.13215230046913       -2.95759466739393       -7.04305994052394
H            0.80538307547523       -0.53354766920751       -7.34403091146301
N            2.23127099779721        1.35402933144910       -5.73892306141859
C            3.11241171106559        1.73543922427122       -4.76063924450366
H            1.65837663644972        1.97523514875737       -6.31338063088867
H            3.27674888508285        2.75266600729395       -4.44579453526872
