48
Energy =
C    -2.8528863    2.3755753    0.9490277 
C    -1.6185621    2.4378646    0.3881559 
C    -3.9635327    2.4819151    0.1714628 
C    -3.8307127    2.6488744   -1.1639869 
C    -2.5991881    2.7117104   -1.7303204 
C    -1.4841373    2.6108209   -0.9558384 
H    -0.7409147    2.3438580    1.0223059 
H    -4.7237333    2.7298238   -1.7740614 
H    -2.5137208    2.8416632   -2.8065211 
H    -2.9497646    2.2382844    2.0205521 
C    -0.1118414    2.6630163   -1.5903467 
C     0.2825906    1.3094680   -2.2264515 
H     0.6497972    2.9745645   -0.8436472 
H    -0.1127310    3.4562585   -2.3742033 
C     1.4851184    1.4614335   -3.1447823 
O    -5.2496570    2.4210859    0.7179073 
H    -5.2648569    2.2966369    1.7241530 
O     1.2504028    1.6046697   -4.5067159 
N     0.5171074    0.2898089   -1.1894433 
H    -0.5453527    0.9665917   -2.8933876 
H     1.2064001    0.6315583   -0.4792538 
H    -0.3786216    0.0793006   -0.6884450 
N     2.7844509    1.7738865   -2.6069723 
C     4.0211315    1.3274700   -3.2886753 
H     2.8371479    2.2440121   -1.6777395 
C     4.5361211    2.3798710   -4.2730089 
O     3.7025640    2.8872902   -5.2601826 
O     5.8656400    2.8143968   -4.2458978 
H     6.4103460    2.3788279   -3.5179665 
C     3.8824433   -0.0628342   -3.9598941 
H     4.8024518    1.2327910   -2.5046164 
C     3.7070099   -1.1679333   -2.9416571 
H     4.7936588   -0.2803360   -4.5596033 
H     3.0456552   -0.0687234   -4.6940436 
C     4.6719239   -1.7284675   -2.1949112 
C     6.0068994   -1.4796633   -2.1677726 
C     6.7821864   -2.1967033   -1.3043104 
C     6.2184763   -3.1407325   -0.4909213 
C     4.8759358   -3.3741118   -0.5369004 
C     4.1307132   -2.6522961   -1.3998198 
H     6.4566596   -0.7335881   -2.8157690 
H     7.8542037   -2.0186014   -1.2638972 
H     6.8428927   -3.7090112    0.1939703 
H     4.4124817   -4.1197095    0.1001735 
N     2.7281490   -2.7371442   -1.6025987 
C     2.5354397   -1.7412303   -2.6164718 
H     2.0240483   -3.3597406   -1.1446093 
H     1.5695117   -1.4795763   -3.0441192 
