48
Energy =
C     2.9057510   -3.4808543   -1.0102010 
C     2.0349258   -2.8261152   -1.8195266 
C     2.5648927   -3.7576024    0.2767660 
C     1.3553021   -3.3741422    0.7456546 
C     0.4818293   -2.7164290   -0.0587734 
C     0.8142645   -2.4456730   -1.3497491 
H     2.3240223   -2.5911809   -2.8434791 
H     1.0978880   -3.5970791    1.7754614 
H    -0.4810698   -2.4067787    0.3393172 
H     3.8765311   -3.7776613   -1.3930435 
C    -0.1346690   -1.6690123   -2.2372856 
C     0.0615855   -0.1438003   -2.0845939 
H    -1.1848169   -1.9374337   -1.9882063 
H     0.0165632   -1.9551860   -3.3030687 
C     1.5076952    0.2620072   -2.3669602 
O     3.4390942   -4.4282856    1.1372695 
H     4.3206410   -4.6881786    0.7091492 
O     2.0293693   -0.0432297   -3.6193833 
N    -0.8711053    0.5716385   -2.9693176 
H    -0.1704583    0.1442113   -1.0340356 
H    -0.6463491    0.3486461   -3.9696161 
H    -1.8531258    0.2598401   -2.7853996 
N     2.2953678    0.8719219   -1.3090277 
C     3.7892903    0.9841989   -1.3523663 
H     2.0770974    0.2966000   -0.4621362 
C     4.2386492    2.1386561   -0.4202302 
O     5.4543567    2.7784614   -0.6127907 
O     3.5073168    2.5327715    0.7034476 
H     2.6079132    2.0909157    0.7728038 
C     4.3746334    1.1027575   -2.7955313 
H     4.2322536    0.0702015   -0.8969803 
C     5.8798776    1.2808996   -2.8746174 
H     3.8353017    1.9013174   -3.3511983 
H     4.2112123    0.1553790   -3.3392622 
C     6.8116675    0.3399849   -2.6459491 
C     6.6648595   -0.9644974   -2.2952389 
C     7.7874550   -1.7195208   -2.1226783 
C     9.0255273   -1.1680211   -2.3041470 
C     9.1485088    0.1418046   -2.6615799 
C     8.0232888    0.8685640   -2.8255029 
H     5.6840717   -1.4077682   -2.1550429 
H     7.6979920   -2.7651620   -1.8387464 
H     9.9157264   -1.7758248   -2.1630432 
H    10.1228690    0.5945025   -2.8106042 
N     7.9317355    2.2347455   -3.2020038 
C     6.5090207    2.4228226   -3.2097291 
H     8.6959555    2.9115992   -3.4279889 
H     6.0127166    3.3745909   -3.3914301 
