48
Energy =
C    -2.0542106    3.0212046   -2.8829872 
C    -1.1574987    2.1897634   -3.4717009 
C    -1.6307039    4.1515650   -2.2585632 
C    -0.3119413    4.4444275   -2.2296348 
C     0.5893712    3.6160394   -2.8152842 
C     0.1745573    2.4745608   -3.4361880 
H    -1.5159937    1.2929897   -3.9690959 
H     0.0122864    5.3533346   -1.7327185 
H     1.6436399    3.8790613   -2.7848758 
H    -3.1112777    2.7790100   -2.9136062 
C     1.1743949    1.5412663   -4.1000264 
C     1.4949206    0.2711998   -3.2651155 
H     2.1213879    2.0915625   -4.3214545 
H     0.7748149    1.2329524   -5.0898914 
C     2.2305160    0.5717064   -1.9597502 
O    -2.5270574    5.0294615   -1.6429634 
H    -3.4967618    4.7378877   -1.7018337 
O     2.5477717   -0.4744477   -1.0980058 
N     0.2554816   -0.4873492   -3.0319702 
H     2.1980500   -0.3605736   -3.8555023 
H    -0.0809680   -0.8839995   -3.9406828 
H     0.4626208   -1.3141695   -2.4204821 
N     2.8833727    1.8347241   -1.7719053 
C     4.3374192    1.8867831   -2.0948140 
H     2.7481765    2.0716956   -0.7616148 
C     4.6577374    3.2650794   -2.6610447 
O     3.8660079    3.7833787   -3.6819412 
O     5.7447356    4.0145578   -2.2187984 
H     6.3169580    3.5081210   -1.5614860 
C     4.8175594    0.7840960   -3.0822548 
H     4.9159754    1.7662461   -1.1497253 
C     6.3190080    0.8278766   -3.2805040 
H     4.3035817    0.8891378   -4.0603821 
H     4.5751400   -0.2252851   -2.6838785 
C     6.9955737    1.4841399   -4.2380630 
C     6.5387484    2.2435421   -5.2669697 
C     7.4493799    2.8160203   -6.1051280 
C     8.7884130    2.6229670   -5.9066290 
C     9.2249144    1.8584489   -4.8657978 
C     8.3042731    1.3032957   -4.0496690 
H     5.4770543    2.4135105   -5.4188798 
H     7.1064527    3.4379796   -6.9282426 
H     9.5072896    3.0881020   -6.5761729 
H    10.2834173    1.7015062   -4.6895783 
N     8.5476888    0.4912740   -2.9093511 
C     7.2095970    0.2325907   -2.4670001 
H     9.4568977    0.1698400   -2.5052634 
H     6.9569595   -0.3554794   -1.5879122 
