48
Energy =
C     1.0481121   -0.0020847    1.8498103 
C     0.9794940   -0.7459471    0.7224707 
C     1.3497854    1.3165676    1.7776449 
C     1.6011043    1.8834832    0.5819111 
C     1.6242764    1.1390502   -0.5767995 
C     1.2460975   -0.1896240   -0.4891991 
H     0.7086837   -1.7964308    0.7954386 
H     1.7634615    2.9454302    0.5947988 
H     1.7050028    1.6554577   -1.8252962 
H     0.8383903   -0.4632752    2.8088499 
C     1.1450607   -1.0578676   -1.7378779 
C     1.9870991   -0.5419254   -2.9265047 
H     0.0814922   -1.1490246   -2.0444029 
H     1.5039193   -2.0812465   -1.4826817 
C     3.1983582    0.2268728   -2.4129703 
O     1.3930232    2.1273899    2.9170546 
H     1.1850550    1.6322917    3.7791996 
O     4.2866884   -0.5477486   -1.9669788 
N     2.3602348   -1.6734058   -3.7829730 
H     1.3909747    0.1823472   -3.5287502 
H     3.1531292   -2.2872627   -3.4772171 
H     1.8369665   -1.8239764   -4.6757302 
N     2.9380258    1.5378706   -1.7592700 
C     3.2941310    3.0209736   -1.7830127 
H     3.8321855    1.5221464   -2.2949763 
C     3.3081389    3.6613977   -3.1853565 
O     3.1777315    2.8643877   -4.3108196 
O     3.4317917    5.0394839   -3.3535013 
H     3.3885425    5.5465509   -2.4843697 
C     4.5656144    3.3323412   -0.9281845 
H     2.4768672    3.6095809   -1.3166740 
C     5.8705553    2.9711393   -1.6179491 
H     4.4841238    2.7869442    0.0364764 
H     4.5985811    4.4125631   -0.6693342 
C     6.6605463    1.9134517   -1.3584020 
C     6.5083149    0.9055033   -0.4597460 
C     7.4685794   -0.0608441   -0.3988748 
C     8.5566889   -0.0074732   -1.2242509 
C     8.6886417    1.0105848   -2.1201882 
C     7.7244747    1.9537021   -2.1633316 
H     5.6343209    0.8335799    0.1788741 
H     7.3575111   -0.8876504    0.2981323 
H     9.3124320   -0.7869082   -1.1747899 
H     9.5404582    1.0627123   -2.7892901 
N     7.6699678    3.0818530   -3.0228829 
C     6.4379077    3.6854620   -2.6092652 
H     8.3555154    3.3952862   -3.7476196 
H     6.0158615    4.5828800   -3.0611501 
