48
Energy =
C     4.9595380   -2.0123092    3.1131423 
C     3.8163810   -1.5930843    2.5140303 
C     6.0432507   -2.3429540    2.3613511 
C     5.9756203   -2.2481398    1.0141736 
C     4.8344899   -1.8299336    0.4105297 
C     3.7453889   -1.5047421    1.1568930 
H     2.9606371   -1.3264277    3.1288163 
H     6.8490690   -2.5090892    0.4272943 
H     4.8006235   -1.7553356   -0.6696035 
H     5.0051136   -2.0803370    4.1945001 
C     2.4779886   -1.0169201    0.4907497 
C     2.3815565    0.5246232    0.5113735 
H     1.6041269   -1.4540248    1.0221148 
H     2.4164502   -1.3851616   -0.5573385 
C     3.4136385    1.1825399   -0.3936493 
O     7.2354014   -2.7832494    2.9457775 
H     7.2123385   -2.8080174    3.9593509 
O     4.4564628    1.9078300    0.1729257 
N     1.0140665    0.9443224    0.1629167 
H     2.6155711    0.8945548    1.5389427 
H     0.6871057    0.4505870   -0.7008198 
H     0.3607999    0.6811756    0.9377361 
N     3.2663041    1.1900002   -1.8216503 
C     4.4163479    0.7341570   -2.6232053 
H     2.3174583    1.3258009   -2.2367377 
C     4.9138997    1.8715847   -3.5130833 
O     4.5531168    1.9271308   -4.8551426 
O     5.6972195    2.8992120   -2.9922376 
H     5.7209479    2.8559442   -1.9814481 
C     4.0037256   -0.5227302   -3.4202681 
H     5.2744801    0.4675189   -1.9629752 
C     5.1691191   -1.1337234   -4.1766228 
H     3.1703303   -0.2645667   -4.1078152 
H     3.6052783   -1.2871869   -2.7207329 
C     5.3497463   -1.1780670   -5.5094261 
C     4.5723041   -0.7026301   -6.5180175 
C     4.9925170   -0.8820929   -7.8030077 
C     6.1685207   -1.5289027   -8.0616881 
C     6.9331560   -1.9986296   -7.0362788 
C     6.4976680   -1.8075737   -5.7732475 
H     3.6442009   -0.1751914   -6.3235111 
H     4.3916566   -0.5003398   -8.6251414 
H     6.4979964   -1.6636816   -9.0889831 
H     7.8708656   -2.5105923   -7.2239787 
N     7.1427885   -2.2170668   -4.5764313 
C     6.2174169   -1.7419599   -3.5914357 
H     8.0445298   -2.7323912   -4.4520022 
H     6.3559748   -1.8556092   -2.5205152 
