48
Energy =
C    -2.8082928   -1.3480874   -2.5763934 
C    -2.0009561   -0.5177427   -3.2858272 
C    -3.0882267   -2.5929289   -3.0448968 
C    -2.5672984   -3.0075832   -4.2154253 
C    -1.7761041   -2.1959478   -4.9217207 
C    -1.4725485   -0.9384981   -4.4732982 
H    -1.7887047    0.4788072   -2.8950245 
H    -2.7716705   -3.9918895   -4.5971822 
H    -1.3188899   -2.5431598   -5.8752664 
H    -3.2336747   -1.0145282   -1.6274498 
C    -0.5620269   -0.0152890   -5.2902970 
C     0.8996897   -0.5234056   -5.5002624 
H    -0.5054958    0.9835474   -4.7977418 
H    -1.0388340    0.1780901   -6.2775948 
C     1.4607563   -1.2213369   -4.2762239 
O    -3.9064088   -3.4688684   -2.3437589 
H    -4.2860085   -3.1129220   -1.4652459 
O     0.9616458   -2.4828997   -3.9687857 
N     1.0390732   -1.3643934   -6.7053477 
H     1.5389612    0.3764394   -5.6592936 
H     0.4539935   -2.2408721   -6.6753675 
H     0.7342637   -0.8227909   -7.5473898 
N     2.0182712   -0.4298198   -3.2167160 
C     3.1732658   -1.1024964   -2.5695809 
H     1.2497347   -0.3257025   -2.5089199 
C     3.4815844   -0.4859069   -1.2062957 
O     3.8475082   -1.3260244   -0.1656750 
O     3.4908516    0.8913788   -1.0032475 
H     3.2474057    1.4035352   -1.8376987 
C     4.4100726   -1.0313681   -3.5007937 
H     2.9324535   -2.1724897   -2.3497057 
C     5.6747882   -1.5521658   -2.8293184 
H     4.5604476    0.0180286   -3.8398397 
H     4.2215741   -1.6237544   -4.4233723 
C     6.6242212   -0.8202830   -2.2173023 
C     6.7252022    0.5260684   -2.0619888 
C     7.7936002    1.0219279   -1.3745886 
C     8.7341710    0.1772088   -0.8550955 
C     8.6113604   -1.1701261   -1.0165951 
C     7.5466474   -1.6375127   -1.7026962 
H     5.9765440    1.2077971   -2.4535427 
H     7.8941057    2.0964926   -1.2289397 
H     9.5798677    0.5827973   -0.3019056 
H     9.3465095   -1.8515781   -0.5986053 
N     7.2232888   -2.9959271   -1.9605941 
C     5.9925951   -2.8538147   -2.6833249 
H     7.7570141   -3.8572465   -1.6942861 
H     5.3871681   -3.6875220   -3.0361891 
