48
Energy =
C     1.3653497    0.5858569    4.4825732 
C     0.7828113    0.2342435    3.3067584 
C     2.0196201   -0.3449203    5.2260978 
C     2.0877782   -1.6219492    4.7881214 
C     1.5107963   -1.9781821    3.6127175 
C     0.8522279   -1.0512581    2.8621773 
H     0.2632536    0.9906939    2.7221245 
H     2.6139654   -2.3546076    5.3903441 
H     1.5849649   -3.0089996    3.2767214 
H     1.3094726    1.6137674    4.8260511 
C     0.2264743   -1.4503278    1.5373252 
C     1.1051395   -1.1299022    0.2946696 
H    -0.7664490   -0.9571110    1.4304481 
H     0.0088576   -2.5408706    1.5409070 
C     1.0810277    0.3381888   -0.1229005 
O     2.6294253   -0.0165855    6.4407005 
H     2.5505496    0.9631670    6.6913178 
O     0.1246849    1.1925092    0.4157415 
N     2.4780978   -1.6362127    0.4732496 
H     0.6540178   -1.6523825   -0.5806723 
H     2.9411578   -1.1612697    1.2835010 
H     2.4531631   -2.6623214    0.6766393 
N     1.6746374    0.7214460   -1.3704731 
C     3.1000980    1.0975526   -1.1998203 
H     1.1088073    1.5312056   -1.7158080 
C     3.2971068    2.5755385   -0.8674010 
O     3.9135560    2.9208663    0.3276828 
O     2.9416457    3.5913867   -1.7545376 
H     2.4911518    3.2293337   -2.5788805 
C     3.8705562    0.6868510   -2.4732112 
H     3.5664875    0.5585824   -0.3400077 
C     4.0855616   -0.8113101   -2.5139833 
H     4.8639393    1.1908605   -2.5014898 
H     3.3229267    1.0122518   -3.3833998 
C     3.2279126   -1.7433007   -2.9620699 
C     2.0011590   -1.6021285   -3.5273233 
C     1.3178746   -2.7269046   -3.8855150 
C     1.8645813   -3.9626963   -3.6767649 
C     3.0980136   -4.0807447   -3.1082992 
C     3.7543878   -2.9530487   -2.7637724 
H     1.5632426   -0.6227040   -3.6888208 
H     0.3331794   -2.6397039   -4.3380782 
H     1.3141217   -4.8547062   -3.9645664 
H     3.5457263   -5.0528877   -2.9333065 
N     5.0327262   -2.8581907   -2.1520170 
C     5.1660124   -1.4377043   -2.0144548 
H     5.6940804   -3.6201268   -1.8779326 
H     6.0124266   -0.9438504   -1.5423475 
