48
Energy =
C     2.5519852   -4.5088168   -2.3761963 
C     2.0033429   -3.6232392   -3.2456852 
C     3.9021005   -4.5887992   -2.2425079 
C     4.6952627   -3.7856896   -2.9860551 
C     4.1528051   -2.8986418   -3.8574097 
C     2.7992343   -2.7948791   -3.9804065 
H     0.9231772   -3.5807527   -3.3397244 
H     5.7716619   -3.8627753   -2.8750412 
H     4.8153937   -2.2703425   -4.4469892 
H     1.9075179   -5.1526299   -1.7876815 
C     2.1971864   -1.8021560   -4.9605469 
C     1.1594828   -0.8360517   -4.3294762 
H     1.7102454   -2.3822668   -5.7746142 
H     3.0007956   -1.2029622   -5.4437679 
C     1.6881056   -0.0946888   -3.1045598 
O     4.4995772   -5.4903930   -1.3555982 
H     3.8386294   -6.0418817   -0.8191632 
O     1.7382523   -0.7422548   -1.8758366 
N     0.6719428    0.0965136   -5.3621002 
H     0.2896626   -1.4209615   -3.9521335 
H     1.4693029    0.6602791   -5.7541213 
H     0.2484772   -0.4379624   -6.1567096 
N     2.0507621    1.2899030   -3.1760696 
C     3.4414258    1.6897127   -2.8626988 
H     1.3545704    1.9620616   -3.5730354 
C     3.7232616    3.0903672   -3.3939889 
O     4.1430222    4.0861700   -2.5172826 
O     3.5967429    3.3911817   -4.7570267 
H     3.2794936    2.6021662   -5.3083112 
C     4.4720010    0.6727817   -3.4125601 
H     3.5487748    1.7398676   -1.7559240 
C     5.8934338    1.0656412   -3.0815417 
H     4.3623046    0.5744343   -4.5140628 
H     4.2776672   -0.3241180   -2.9708316 
C     6.5851920    0.7318684   -1.9812754 
C     6.2200852   -0.0345543   -0.9207095 
C     7.1221743   -0.2191331    0.0853050 
C     8.3589887    0.3610454    0.0197757 
C     8.7009525    1.1308040   -1.0524884 
C     7.7926698    1.2961206   -2.0367555 
H     5.2355502   -0.4901760   -0.8591014 
H     6.8538719   -0.8276006    0.9458719 
H     9.0705850    0.2121027    0.8279346 
H     9.6747679    1.6038064   -1.1173390 
N     7.9421067    2.0620835   -3.2242090 
C     6.6615708    1.8654689   -3.8415431 
H     8.7673443    2.6098121   -3.5600059 
H     6.3364780    2.3370716   -4.7707431 
