48
Energy =
C     4.8034479    3.1604338    2.0209350 
C     3.4859525    3.4448607    1.8678667 
C     5.2280353    1.8689825    2.0279500 
C     4.3303272    0.8696700    1.8665606 
C     3.0106026    1.1478684    1.7143804 
C     2.5785034    2.4392922    1.7272600 
H     3.1641254    4.4837682    1.8631335 
H     4.6839032   -0.1558685    1.8568694 
H     2.3050267    0.3301657    1.5845465 
H     5.5162693    3.9696558    2.1395621 
C     1.1093860    2.7603049    1.5622203 
C     0.7316047    3.0158673    0.0840507 
H     0.8629724    3.6584136    2.1715493 
H     0.4827540    1.9358616    1.9748212 
C     0.8249528    1.7242121   -0.7407032 
O     6.5781448    1.5433952    2.1955637 
H     7.1845413    2.3474387    2.3179169 
O    -0.0039991    0.6732739   -0.3576389 
N    -0.6380782    3.5555932    0.0223393 
H     1.4119093    3.7850268   -0.3307672 
H    -1.3182748    2.8854447    0.4574165 
H    -0.7002947    4.4658632    0.5369847 
N     1.8331169    1.4154436   -1.7352098 
C     2.8951465    2.4204809   -1.9872035 
H     2.2646438    0.5335827   -1.3797667 
C     2.3536214    3.6616481   -2.6904319 
O     2.6926763    4.9118412   -2.1897542 
O     1.5394852    3.5835451   -3.8164034 
H     1.3115052    2.6236597   -4.0310241 
C     4.0069955    1.7926437   -2.8623849 
H     3.3613475    2.7538156   -1.0326509 
C     4.8385834    0.7842057   -2.0999232 
H     4.6923394    2.5925938   -3.2279181 
H     3.5629140    1.3333164   -3.7714962 
C     4.7108523   -0.5534817   -2.1098569 
C     3.8497110   -1.3444791   -2.8015291 
C     3.9154072   -2.6939927   -2.6135684 
C     4.8282803   -3.2270520   -1.7459790 
C     5.6805287   -2.4136369   -1.0601726 
C     5.5984001   -1.0828582   -1.2660114 
H     3.1174085   -0.9239837   -3.4845958 
H     3.2362383   -3.3491413   -3.1546224 
H     4.8735696   -4.3035937   -1.6005058 
H     6.4076319   -2.8187186   -0.3643262 
N     6.3694612   -0.0696484   -0.6390562 
C     5.8179699    1.1082774   -1.2392777 
H     7.1464610   -0.1491470    0.0584929 
H     6.1325374    2.1222653   -1.0019405 
