48
Energy =
C     2.8686996    5.1145114    3.1666017 
C     2.9828349    4.2767279    2.1049847 
C     3.9763529    5.5010789    3.8542898 
C     5.1919070    5.0465922    3.4735286 
C     5.3118953    4.2088175    2.4127638 
C     4.2064314    3.8202477    1.7197579 
H     2.0890542    3.9759571    1.5639235 
H     6.0677112    5.3626132    4.0297601 
H     6.2971777    3.8525372    2.1240562 
H     1.8896594    5.4742049    3.4642652 
C     4.3298096    2.8734233    0.5465649 
C     3.9546293    1.4147026    0.9273128 
H     5.3600154    2.9017325    0.1275684 
H     3.6689048    3.2474400   -0.2711087 
C     3.8484646    0.4888974   -0.2791580 
O     3.8936150    6.3606640    4.9543845 
H     2.9506350    6.6648266    5.1709275 
O     3.5241963   -0.8465455   -0.0710771 
N     4.9208401    0.8791668    1.9003178 
H     2.9365706    1.4021767    1.3809732 
H     5.8984628    1.0014505    1.5458707 
H     4.8397711    1.3947037    2.8075514 
N     3.6128951    1.0268155   -1.5829508 
C     4.7847928    1.2714436   -2.4397580 
H     2.6342011    1.2395229   -1.8832006 
C     4.7850219    2.6913596   -2.9917991 
O     3.6151067    3.4405823   -2.9950077 
O     5.9301619    3.2458122   -3.5606747 
H     6.7307172    2.6373896   -3.4762712 
C     4.8171638    0.2226132   -3.5670459 
H     5.7234043    1.1665018   -1.8481781 
C     3.5663157    0.2491837   -4.4227778 
H     4.9529451   -0.7840892   -3.1168805 
H     5.7053594    0.3922556   -4.2142492 
C     2.4784217   -0.5276848   -4.2889927 
C     2.2156483   -1.5162671   -3.3948208 
C     1.0085917   -2.1471978   -3.4616048 
C     0.0901112   -1.7835857   -4.4070460 
C     0.3720812   -0.7834270   -5.2893989 
C     1.5742259   -0.1760109   -5.2052532 
H     2.9333365   -1.7976852   -2.6293685 
H     0.7741651   -2.9383406   -2.7530494 
H    -0.8715741   -2.2886900   -4.4504312 
H    -0.3491232   -0.4750126   -6.0386176 
N     2.0495572    0.8978077   -6.0042211 
C     3.3426793    1.1211569   -5.4226787 
H     1.5848762    1.3851308   -6.8049518 
H     4.0203795    1.9281256   -5.7057782 
