48
Energy =
C     0.8386486    3.5341158    4.8952664 
C     0.8478316    2.8168368    3.7431777 
C     1.4808204    4.7311095    4.9604354 
C     2.1287821    5.2020085    3.8707357 
C     2.1414900    4.4889978    2.7160788 
C     1.4965051    3.2922139    2.6447013 
H     0.3337114    1.8594830    3.7067942 
H     2.6384511    6.1570997    3.9360961 
H     2.6723200    4.8831640    1.8529606 
H     0.3180570    3.1471534    5.7645750 
C     1.5232462    2.4822291    1.3679870 
C     2.5534410    1.3305269    1.4348935 
H     1.7413431    3.1361347    0.4924686 
H     0.5069921    2.0637282    1.1878171 
C     2.4285411    0.4190472    0.2272230 
O     1.4919809    5.4943382    6.1324938 
H     0.9826339    5.0743006    6.9022195 
O     1.8165838   -0.8187835    0.3745738 
N     3.9243447    1.8594033    1.5696737 
H     2.3190788    0.6791226    2.3121407 
H     4.0533589    2.7049082    0.9628304 
H     4.0681769    2.1856526    2.5552268 
N     2.6102067    0.9342686   -1.0947881 
C     3.9911637    1.0960289   -1.5788273 
H     1.7699486    1.1388074   -1.6797829 
C     4.2569870    2.5559424   -1.9076853 
O     3.3389025    3.2595778   -2.6770324 
O     5.4093637    3.2135990   -1.4744330 
H     6.0357958    2.6144930   -0.9577305 
C     4.2062958    0.2072445   -2.8199061 
H     4.7221110    0.7973833   -0.7910971 
C     4.2007945   -1.2608313   -2.4534016 
H     5.1849575    0.4514650   -3.2921145 
H     3.4306347    0.4254250   -3.5868873 
C     3.1500265   -2.0981608   -2.4584469 
C     1.8585410   -1.8782855   -2.8161095 
C     0.9743919   -2.9129149   -2.7236090 
C     1.3891742   -4.1385507   -2.2814397 
C     2.6907677   -4.3367969   -1.9283876 
C     3.5461620   -3.2977272   -2.0284265 
H     1.5240064   -0.9059669   -3.1599101 
H    -0.0670533   -2.7600165   -2.9954015 
H     0.6773077   -4.9564667   -2.2046749 
H     3.0353076   -5.3009768   -1.5706553 
N     4.9308115   -3.2933319   -1.7099258 
C     5.2759055   -1.9346627   -2.0070183 
H     5.5323890   -4.0743568   -1.3608642 
H     6.2682617   -1.5107663   -1.8720514 
