48
Energy =
C     2.0828184    4.2249927    3.1333564 
C     1.7830444    2.9863820    2.6651273 
C     1.1978518    5.2460356    2.9798029 
C     0.0201996    5.0212582    2.3536973 
C    -0.2835565    3.7855994    1.8815309 
C     0.5936531    2.7577311    2.0426601 
H     2.5049203    2.1787414    2.7810245 
H    -0.6743812    5.8453670    2.2323788 
H    -1.2317608    3.6272005    1.3742516 
H     3.0332245    4.3981873    3.6269482 
C     0.2678707    1.3848133    1.4956787 
C     0.7266601    1.2308878    0.0282808 
H    -0.8283946    1.2103343    1.5648699 
H     0.7450655    0.5961859    2.1212040 
C     2.2402028    1.3417074   -0.1075834 
O     1.4736947    6.5326734    3.4533471 
H     2.3830359    6.6247436    3.8929046 
O     3.0601735    0.6287523    0.7688041 
N     0.2483394   -0.0515121   -0.5115290 
H     0.2804748    2.0568421   -0.5721591 
H     0.6334272   -0.8381273    0.0663850 
H    -0.7959400   -0.0958314   -0.4489641 
N     2.8169399    1.9837589   -1.2569842 
C     4.2395190    1.7242666   -1.5566619 
H     2.2431803    2.6525504   -1.8204217 
C     4.8844847    2.8646786   -2.3385947 
O     4.1068475    3.7127037   -3.1188542 
O     6.2704146    3.0369234   -2.3507159 
H     6.7463082    2.3707539   -1.7602950 
C     4.3721963    0.3751553   -2.2962477 
H     4.8144309    1.6665410   -0.6046414 
C     3.5619892    0.3325615   -3.5759255 
H     4.0206512   -0.4356016   -1.6185292 
H     5.4401591    0.1555632   -2.5105644 
C     3.9616810    0.7013591   -4.8043815 
C     5.1618555    1.1763671   -5.2271954 
C     5.3080853    1.4872052   -6.5471808 
C     4.2659181    1.3189550   -7.4162384 
C     3.0699288    0.8409569   -6.9698422 
C     2.9493925    0.5417098   -5.6593935 
H     5.9889209    1.3227539   -4.5392411 
H     6.2562711    1.8792117   -6.9073320 
H     4.3891738    1.5738463   -8.4657605 
H     2.2313300    0.7069930   -7.6445230 
N     1.7956851    0.0439284   -4.9966117 
C     2.2766575   -0.0566129   -3.6493990 
H     0.8541662   -0.1897872   -5.3870834 
H     1.6759418   -0.3812339   -2.8019540 
