48
Energy =
C    -0.8002827   -0.0959023    3.8816952 
C     0.3521842    0.6203323    3.8574762 
C    -0.8307976   -1.3587394    3.3789969 
C     0.2941988   -1.8972465    2.8574379 
C     1.4491983   -1.1860527    2.8313373 
C     1.4864751    0.0817625    3.3275278 
H     0.3592774    1.6283996    4.2637316 
H     0.2590386   -2.9065067    2.4619832 
H     2.3419834   -1.6438315    2.4160519 
H    -1.6972386    0.3438728    4.3045916 
C     2.7709802    0.8895012    3.2917026 
C     2.9757488    1.6972514    1.9812066 
H     3.6417663    0.2138414    3.4511353 
H     2.7914264    1.5933574    4.1527701 
C     3.2674836    0.8206691    0.7631474 
O    -2.0018604   -2.1230219    3.3872556 
H    -2.7998852   -1.6509993    3.7982695 
O     3.9089509   -0.4016829    0.9445835 
N     1.8433533    2.6122694    1.7470608 
H     3.8994014    2.3063588    2.1165832 
H     0.9649246    2.0663183    1.5767761 
H     1.6885721    3.2070379    2.5954335 
N     3.2243015    1.3577777   -0.5733731 
C     4.5691696    1.6812464   -1.1140600 
H     2.5183338    2.1197720   -0.6712583 
C     5.0458639    3.1350281   -0.9181715 
O     6.2581317    3.5089942   -1.4823093 
O     4.3519420    4.1160520   -0.2088944 
H     3.5106726    3.7917395    0.2266510 
C     4.5534873    1.3002514   -2.6125171 
H     5.3457009    1.0555248   -0.6098590 
C     5.9245032    0.9054114   -3.1214452 
H     4.1388493    2.1372582   -3.2172977 
H     3.8651430    0.4405111   -2.7741417 
C     6.5226352   -0.2842424   -2.9546981 
C     6.0771958   -1.3990923   -2.3201565 
C     6.8943950   -2.4900852   -2.2781813 
C     8.1312144   -2.4498823   -2.8607653 
C     8.5595987   -1.3164912   -3.4863083 
C     7.7316738   -0.2511019   -3.5166057 
H     5.1008555   -1.4273312   -1.8424453 
H     6.5623820   -3.3933665   -1.7720499 
H     8.7781801   -3.3223637   -2.8185840 
H     9.5411514   -1.2645958   -3.9448299 
N     7.9894362    1.0217240   -4.0923542 
C     6.7714760    1.7153107   -3.7811607 
H     8.8336537    1.3563070   -4.6108617 
H     6.5855433    2.7682823   -3.9915028 
