48
Energy =
C    -1.5155332   -0.9100994   -4.3291345 
C    -1.2867582   -0.4657053   -3.0675577 
C    -1.3251876   -0.0824552   -5.3905958 
C    -0.9190437    1.1898019   -5.1809279 
C    -0.6916194    1.6407172   -3.9213801 
C    -0.8630542    0.8115107   -2.8543813 
H    -1.4262708   -1.1440458   -2.2314415 
H    -0.7705648    1.8410652   -6.0352579 
H    -0.3597812    2.6639894   -3.7782595 
H    -1.8403486   -1.9319778   -4.4885541 
C    -0.5278610    1.2843197   -1.4514185 
C     0.7445792    0.6008885   -0.8900958 
H    -1.3896451    1.0656591   -0.7844324 
H    -0.3874675    2.3881839   -1.4359001 
C     1.9590467    0.7952729   -1.7955383 
O    -1.5401504   -0.5137401   -6.7042321 
H    -1.8460752   -1.4776044   -6.7754406 
O     1.9887509    0.0138953   -2.9353131 
N     0.9919634    1.0571971    0.4899025 
H     0.5824084   -0.5020461   -0.8718392 
H     0.9431831    2.1032573    0.5405306 
H     0.2321878    0.6943865    1.1136548 
N     2.7220216    2.0194797   -1.7264309 
C     3.9612572    2.2147820   -2.5451911 
H     2.9707539    2.1366649   -0.7174460 
C     3.8615511    3.4810779   -3.3772865 
O     5.0045278    4.2421295   -3.5837657 
O     2.6954393    3.8363955   -4.0524325 
H     1.9618756    3.1662366   -3.8732401 
C     4.5394678    0.9897240   -3.3385523 
H     4.7774386    2.4692752   -1.8270126 
C     3.9753245    0.7128986   -4.7398767 
H     4.4746145    0.0932663   -2.6908398 
H     5.6302703    1.1595236   -3.4774644 
C     3.5787343   -0.4841694   -5.2292054 
C     3.5278304   -1.7071697   -4.6321590 
C     3.0877630   -2.7726658   -5.3605112 
C     2.7172793   -2.6114852   -6.6649004 
C     2.7917544   -1.3842020   -7.2513368 
C     3.2292776   -0.3456336   -6.5110119 
H     3.8073728   -1.8484675   -3.5942561 
H     3.0237302   -3.7543232   -4.8971994 
H     2.3604145   -3.4656877   -7.2358970 
H     2.5038738   -1.2339252   -8.2862373 
N     3.4246324    0.9854376   -6.9540052 
C     3.9390057    1.5959255   -5.7637665 
H     3.2635816    1.4058347   -7.8988800 
H     4.3119917    2.6172412   -5.7380394 
