48
Energy =
C     0.2763260   -3.5034189   -2.7066203 
C     0.2838363   -2.7438677   -1.5834830 
C    -0.6240882   -3.2543900   -3.6935804 
C    -1.5211586   -2.2542881   -3.5431441 
C    -1.5267592   -1.4990732   -2.4159067 
C    -0.6177217   -1.7340724   -1.4292403 
H     1.0196159   -2.9498659   -0.8092667 
H    -2.2368307   -2.0686615   -4.3357894 
H    -2.2613380   -0.7054380   -2.3116317 
H     0.9996518   -4.3042712   -2.8161248 
C    -0.5998885   -0.8822221   -0.1735703 
C     0.2752273    0.3913901   -0.2968384 
H    -0.2185546   -1.4934550    0.6760109 
H    -1.6381480   -0.6002963    0.1065743 
C     1.6878929    0.0830071   -0.7725435 
O    -0.6435100   -4.0063596   -4.8725793 
H     0.0061014   -4.7853755   -4.8746699 
O     2.4566583   -0.8472554   -0.0803791 
N    -0.3940877    1.4090543   -1.1283872 
H     0.4142848    0.8124672    0.7259375 
H    -0.5548209    1.0420680   -2.0949621 
H    -1.3316840    1.6411284   -0.7224957 
N     2.3090881    0.8570086   -1.8049121 
C     3.5851321    1.5191440   -1.4773965 
H     1.8279166    0.9678095   -2.7257480 
C     3.5543219    3.0180709   -1.7654436 
O     4.7482318    3.6886692   -2.0043042 
O     2.3836241    3.7715477   -1.6850315 
H     1.5840992    3.2112846   -1.4247553 
C     4.7267178    0.7857521   -2.2189501 
H     3.7939663    1.4577417   -0.3830757 
C     4.5573689    0.8073784   -3.7257906 
H     4.7726564   -0.2654635   -1.8594508 
H     5.7050780    1.2448628   -1.9510014 
C     3.9002365   -0.0908132   -4.4795512 
C     3.2532369   -1.2296865   -4.1174117 
C     2.6419023   -1.9643925   -5.0907034 
C     2.6809882   -1.5549385   -6.3942595 
C     3.3353939   -0.4090468   -6.7344822 
C     3.9364528    0.2985418   -5.7556105 
H     3.2080927   -1.5520217   -3.0804141 
H     2.1166196   -2.8783210   -4.8311038 
H     2.1838660   -2.1440564   -7.1611524 
H     3.3723593   -0.0666609   -7.7631810 
N     4.6478049    1.5186294   -5.8957376 
C     5.0112693    1.7830052   -4.5335424 
H     4.8551739    2.0728123   -6.7585365 
H     5.5552362    2.6667508   -4.2009998 
