48
 energy: -9.280551003283 gnorm: 0.000619521012 xtb: 6.6.0 (2ccbbd7)
C            5.49449096145289       -2.83375162444872        3.70722932518437
C            5.03909635172098       -1.94887000413106        2.75852607737956
C            4.59753811133628       -3.52605142148992        4.52143239997267
C            3.23336683837264       -3.29518949761875        4.34688944600971
C            2.78594876091006       -2.40989108562866        3.39551373993882
C            3.68064651071351       -1.72042960107517        2.59060110368857
H            5.74027214010464       -1.42344074549044        2.13296893960662
H            2.54208331980144       -3.82971566316381        4.97368114562757
H            1.72991426813370       -2.24589047447701        3.26537177782936
H            6.54936232437669       -3.00232649881852        3.82982918828722
C            3.18346676245447       -0.79756192544041        1.52261519448753
C            2.69301359274419       -1.54342411338113        0.27923071086002
H            3.97504130286732       -0.09812377120234        1.24275832799807
H            2.37217908658822       -0.17828515468031        1.92028331310335
C            2.07077389923482       -0.58950130221368       -0.71434705609361
O            5.02145641595086       -4.42491923838416        5.48147638427912
H            6.00170333564549       -4.47296776165950        5.48868965872118
O            0.94678891726304       -0.16967381105615       -0.50938863577755
N            3.72857302424486       -2.34813098880364       -0.35656484864879
H            1.89737925869141       -2.24136579954706        0.58494857077452
H            4.36037122414362       -1.74729202243846       -0.87463541069292
H            4.26815146242690       -2.84778406758152        0.33840880678860
N            2.80042811545728       -0.16992343907420       -1.83632189821739
C            4.00161459570964        0.67233905237402       -1.70073658596887
H            2.24607521829582        0.24778359319918       -2.58045083019704
C            3.60983128684196        2.12927047702931       -1.51864412827224
O            4.44645757536998        2.96625122554683       -1.78301364065851
O            2.36070958047674        2.40448267247801       -1.06390178093740
H            1.83833345142014        1.58083984326488       -0.88344342069717
C            4.90299679678025        0.50477496673822       -2.92414872876160
H            4.54270312500487        0.36501776100480       -0.79780535498689
C            4.18116653403457        0.81806808529748       -4.18807211128942
H            5.28654978088258       -0.51891266840547       -2.97256413035613
H            5.77185292120703        1.16492020649837       -2.83145879914822
C            3.38521825046632       -0.08776709268085       -4.94881052099364
C            3.09325811365361       -1.45456994298764       -4.80187360833213
C            2.23698154997834       -2.04001022352689       -5.69238053165659
C            1.65232625775759       -1.29917897247570       -6.73266569919715
C            1.91314575683337        0.03510085251838       -6.88690165405641
C            2.78709080345587        0.65489121730262       -5.98477033902455
H            3.52014722027388       -2.00898775981697       -3.98497912024928
H            1.99764904933808       -3.08550486804381       -5.59005583932868
H            0.97878740906476       -1.79089828113460       -7.41490848561333
H            1.45885539224394        0.61226565913142       -7.67215181356466
N            3.20063852395608        1.96871653003565       -5.84551420441245
C            4.02173651167579        2.06097196940685       -4.74888201188250
H            2.87296836560092        2.74733636218467       -6.42002900515135
H            4.42647178977750        2.97768977838790       -4.34829251461679
