48
 energy: -9.175092697350 gnorm: 0.000641548421 xtb: 6.6.0 (2ccbbd7)
C           -3.32059597500308        2.11571508905051        1.24124276792905
C           -1.94654665682896        2.08712770002306        1.28482149776108
C           -3.98601415724064        3.02062238634079        0.41332938369091
C           -3.22121018800499        3.89047292535301       -0.36368996474569
C           -1.84771891814237        3.85556979423612       -0.31494507099481
C           -1.18995924547941        2.95758124540369        0.51270314381306
H           -1.44367467130091        1.38022463076587        1.92230180671777
H           -3.73372514208257        4.58713873175620       -1.00267635586140
H           -1.26833039829006        4.52752797625771       -0.92459754710818
H           -3.89682119285912        1.43784094328788        1.84519283056063
C            0.30522410477256        2.88998262368395        0.52621860812362
C            0.88362486209865        2.15497970599810       -0.68754798587490
H            0.64439304614348        2.38825356570528        1.43717223704177
H            0.72196417521017        3.90164150329891        0.57592928847100
C            2.37628401310206        2.13895202443039       -0.64214018844110
O           -5.36582425339633        3.07170070097738        0.34401000682764
H           -5.75613207261078        2.40441357598128        0.94939492601982
O            3.06308084041294        3.24251046451821       -0.12101287004554
N            0.36635573898708        0.79575825895992       -0.80328760109222
H            0.59065175223832        2.69368489691374       -1.60270444182445
H            0.66866933907488        0.25728676437482       -0.00236761318441
H           -0.64516522356177        0.80420659622804       -0.79427511464492
N            3.04629454487335        1.03574669244647       -1.12954664676124
C            4.47012937298778        1.06773068228059       -1.47508877449373
H            2.51333688297336        0.43410638474642       -1.76062047241000
C            4.95028878043399        2.48462738854965       -1.70338954797894
O            5.69429273575488        2.72044065424833       -2.65278103080849
O            4.54108367681552        3.46310702866511       -0.77717187704677
H            4.14639762575826        2.99067928472215        0.19665510793188
C            4.77464001769118        0.15806311290407       -2.68992607123172
H            5.01827679374010        0.69415117853528       -0.59687078609595
C            3.67044992770318        0.11961587961633       -3.69556904691801
H            4.96862611369312       -0.86572579551218       -2.35172359525167
H            5.69652520550810        0.49861454191819       -3.17325667501827
C            3.19977478820725        1.18997382419026       -4.51581328563056
C            3.63036145371007        2.51323082885135       -4.71195966157377
C            2.94325901144554        3.31256602408240       -5.58149380907745
C            1.81890961711136        2.83254313580262       -6.27203730399558
C            1.37188536694977        1.55213646105486       -6.09139245821619
C            2.06432410594171        0.71868914601739       -5.20351298771348
H            4.47662407619406        2.88010546499682       -4.16062515007738
H            3.26520656158054        4.32917245655307       -5.73599071673508
H            1.29877976638142        3.48703729724348       -6.95182767890322
H            0.50841230393523        1.17749675856492       -6.61120577691394
N            1.84861143238402       -0.58782345061954       -4.80339786845304
C            2.81868693797859       -0.93983048635352       -3.89856237824311
H            1.08073963717115       -1.17670882862325       -5.13138520097605
H            2.87869311608449       -1.89415829827965       -3.40082782027833
