48
Energy =
C     3.0125607   -3.7828394   -1.4560351 
C     2.1264943   -2.7851700   -1.2110398 
C     4.1256928   -3.9119028   -0.6864426 
C     4.3407961   -3.0453153    0.3291722 
C     3.4585471   -2.0454880    0.5781549 
C     2.3462514   -1.9070194   -0.1942652 
H     1.2516884   -2.6827406   -1.8480677 
H     5.2326190   -3.1583093    0.9357284 
H     3.6537415   -1.3525193    1.3925913 
H     2.8336341   -4.4688622   -2.2766587 
C     1.3861179   -0.7659702    0.0579574 
C     1.9343859    0.5863932   -0.4611915 
H     1.2007749   -0.7048847    1.1528386 
H     0.3953070   -0.9696652   -0.4074061 
C     1.9252309    0.6712267   -1.9906122 
O     5.0706336   -4.9151343   -0.9256065 
H     4.8230585   -5.5400937   -1.6855799 
O     1.0246791    1.5153259   -2.6358257 
N     1.1591024    1.6855258    0.1365675 
H     2.9944297    0.7140868   -0.1456084 
H     0.1478845    1.6000593   -0.1271004 
H     1.2292941    1.6593036    1.1804180 
N     2.7137233   -0.2223740   -2.8010766 
C     4.1755648   -0.0157841   -2.6489816 
H     2.4224555   -0.0574457   -3.7922809 
C     4.6208601    1.4482068   -2.7549316 
O     5.3558720    2.0025262   -1.7145928 
O     4.3357304    2.2368584   -3.8694981 
H     3.7314033    1.7604584   -4.5198246 
C     4.9079843   -0.9220329   -3.6635762 
H     4.4756005   -0.3573773   -1.6325053 
C     6.3883620   -1.0322057   -3.3611978 
H     4.7516227   -0.5580166   -4.7019957 
H     4.4632103   -1.9419997   -3.6210268 
C     7.3758928   -0.2528575   -3.8332333 
C     7.3274927    0.7884839   -4.7036601 
C     8.4911702    1.4258993   -5.0187101 
C     9.6742052    1.0162756   -4.4689337 
C     9.7002104   -0.0336866   -3.5999397 
C     8.5353674   -0.6471397   -3.3027925 
H     6.3916565    1.1199910   -5.1413731 
H     8.4752358    2.2678769   -5.7067472 
H    10.5966917    1.5323146   -4.7228250 
H    10.6291942   -0.3700935   -3.1526346 
N     8.3459643   -1.7474402   -2.4249434 
C     6.9273755   -1.9301870   -2.5172252 
H     9.0489045   -2.2808376   -1.8638770 
H     6.3715470   -2.6927952   -1.9780225 
