48
Energy =
C    -3.7564518    1.7279212   -1.4546953 
C    -2.4057549    1.5989047   -1.4641859 
C    -4.4914308    1.3011584   -2.5162275 
C    -3.8682113    0.7470371   -3.5809979 
C    -2.5175912    0.6153514   -3.5959898 
C    -1.7771426    1.0447720   -2.5376267 
H    -1.8330701    1.9405656   -0.6060266 
H    -4.4656366    0.4094370   -4.4206865 
H    -2.0348954    0.1649834   -4.4597385 
H    -4.2466991    2.1719137   -0.5952718 
C    -0.2736066    0.8803210   -2.5468074 
C     0.1531783   -0.5652786   -2.1998162 
H     0.2049372    1.6001120   -1.8453682 
H     0.1042910    1.1523269   -3.5583116 
C     1.6424151   -0.7662946   -2.4107419 
O    -5.8852501    1.4181995   -2.5376584 
H    -6.2747715    1.8476162   -1.7056700 
O     2.0926034   -1.4871039   -3.5112335 
N    -0.2421318   -0.9118514   -0.8213817 
H    -0.3322057   -1.2725013   -2.9153599 
H    -0.0210864   -0.1244698   -0.1671804 
H    -1.2794908   -1.0551835   -0.7857433 
N     2.5974604   -0.2761533   -1.4616225 
C     3.6366846    0.6721738   -1.9065514 
H     2.4741444   -0.5489008   -0.4610592 
C     3.0717188    1.8767366   -2.6645253 
O     2.9844330    3.0979607   -2.0086549 
O     2.6021911    1.7988379   -3.9776857 
H     2.6224156    0.8558289   -4.3359718 
C     4.7462943   -0.0938909   -2.6632276 
H     4.0966637    1.1070093   -0.9895091 
C     6.0097839    0.7298408   -2.7933618 
H     4.3937402   -0.4465422   -3.6555079 
H     4.9808414   -1.0269685   -2.1035952 
C     6.3933965    1.4783778   -3.8417375 
C     5.7957612    1.6700760   -5.0460666 
C     6.3997705    2.4976996   -5.9462917 
C     7.5800504    3.1136224   -5.6352295 
C     8.1636596    2.9056883   -4.4212201 
C     7.5465344    2.0828130   -3.5474182 
H     4.8593513    1.1868253   -5.3005997 
H     5.9369211    2.6714410   -6.9150220 
H     8.0531305    3.7743036   -6.3575026 
H     9.0982178    3.3888543   -4.1572320 
N     7.9808812    1.7411326   -2.2390899 
C     6.9271672    0.8662100   -1.8191334 
H     8.8398765    2.0457636   -1.7262465 
H     6.8754101    0.3946283   -0.8400866 
