48
Energy =
C    -0.7785516   -0.1774021    0.3270434 
C    -0.0849634    0.8865724    0.8031588 
C    -1.2268078   -0.1824673   -0.9565028 
C    -0.9824980    0.8821652   -1.7540096 
C    -0.2994273    1.9544702   -1.2795547 
C     0.1490770    1.9649233    0.0056888 
H     0.2806426    0.8674644    1.8265103 
H    -1.3432838    0.8655338   -2.7765910 
H    -0.1121937    2.8015630   -1.9359608 
H    -0.9623729   -1.0295179    0.9718263 
C     0.9326093    3.1457777    0.5341467 
C     2.4493275    2.9748211    0.2860544 
H     0.7343373    3.2566545    1.6230716 
H     0.5728008    4.0888204    0.0604370 
C     2.7960296    3.0866867   -1.1918741 
O    -1.9350956   -1.2689439   -1.4803570 
H    -2.1160962   -2.0056088   -0.8075912 
O     2.4194424    4.2203670   -1.9014406 
N     3.2016884    3.9711836    1.0632037 
H     2.7589571    1.9569593    0.6200968 
H     2.9235899    4.9373526    0.7620789 
H     2.9785056    3.8798927    2.0817552 
N     3.2303980    1.9394687   -1.9273083 
C     4.5854563    1.4277113   -1.6396400 
H     2.5597523    1.4917681   -2.5910857 
C     5.6725383    2.1919970   -2.3923952 
O     6.9051223    2.3755026   -1.7782416 
O     5.5075643    2.6324128   -3.7051696 
H     4.5592735    2.5012011   -4.0210394 
C     4.6520359   -0.0800518   -1.9594659 
H     4.8265080    1.5666543   -0.5623445 
C     3.5727484   -0.8633645   -1.2435105 
H     5.6476469   -0.4838344   -1.6658796 
H     4.5589785   -0.2307620   -3.0588629 
C     3.5013312   -1.1284981    0.0704146 
C     4.3588002   -0.8068385    1.0728694 
C     4.0403216   -1.1847299    2.3439926 
C     2.8852976   -1.8740845    2.5910737 
C     2.0434317   -2.1931388    1.5674051 
C     2.3804933   -1.8080642    0.3188921 
H     5.2822618   -0.2696755    0.8781905 
H     4.7121847   -0.9417470    3.1639019 
H     2.6410463   -2.1754796    3.6067011 
H     1.1262996   -2.7442344    1.7444889 
N     1.6452478   -2.0303520   -0.8755691 
C     2.4833198   -1.3803528   -1.8384671 
H     0.7377709   -2.5298789   -1.0235197 
H     2.2569436   -1.3104652   -2.8999951 
