48
 energy: -9.070667717720 gnorm: 0.000623888173 xtb: 6.6.0 (2ccbbd7)
C           -3.03029099354755       -0.48949586784081        1.55746919273925
C           -1.69372969302707       -0.42896137791860        1.24035150936276
C           -3.98546954603023       -0.71769725930642        0.56617583323760
C           -3.54808088935386       -0.88054533006571       -0.74804104779529
C           -2.21015692015896       -0.81993589493982       -1.05678682344018
C           -1.26301396078553       -0.59945499017264       -0.06738791286022
H           -0.96475018430144       -0.24328177812767        2.01062816479099
H           -4.28446971598106       -1.05255707170339       -1.51253836518892
H           -1.88681389414078       -0.94186710605845       -2.07629390300330
H           -3.35289655997249       -0.35836039221056        2.57478506846899
C            0.18876571163747       -0.48156064309124       -0.40934704380447
C            0.63837273531534        0.96894250547251       -0.58267876029458
H            0.39913101727624       -1.03392940912665       -1.32982996965375
H            0.79245403345366       -0.96250574913650        0.36765286124988
C            2.11990507117697        1.05629100029130       -0.84693753095817
O           -5.33640787728392       -0.78357746907415        0.85054398132065
H           -5.48376743509520       -0.65479707305191        1.81246446467585
O            2.89501625757526        1.09486397679838        0.08848979127688
N           -0.09325914006572        1.67268894703516       -1.63487238408398
H            0.46235457494858        1.51184785206206        0.36021096766527
H           -0.14740231651066        1.08533179456278       -2.45785184972334
H           -1.05038286641360        1.82811119168432       -1.34608862021305
N            2.52776905090484        1.12896923728882       -2.16213451995481
C            3.73929330298417        1.86412187145326       -2.48445978553655
H            1.83273123586245        1.16611474288089       -2.91437558161633
C            3.41962537185117        3.32911917087840       -2.62437599297011
O            4.43060169521859        4.21438561622096       -2.85573910616581
O            2.11250145095194        3.76385236203719       -2.52829460917948
H            1.47543430758200        3.06068299005327       -2.21641325466456
C            4.42673763133455        1.26424247181080       -3.73410685635463
H            4.40108717617299        1.73972892513746       -1.61368236212431
C            5.90290519464839        1.08944419003490       -3.58433308188434
H            4.21306786264667        1.88967931075390       -4.60675775958005
H            3.97801723135757        0.28816625387613       -3.94734025294173
C            6.81821903589002        2.07353257412807       -3.11845328679852
C            6.63710843740466        3.39152138242541       -2.69452580330024
C            7.71858215293859        4.10782771303925       -2.27868442253333
C            9.00233990793616        3.53473901087014       -2.27111381585447
C            9.20550074302805        2.24374312957040       -2.68042989483318
C            8.10151714819513        1.49532137287928       -3.11093239511373
H            5.48523522447376        3.82247722840656       -2.75734037289230
H            7.58377381752117        5.12618991631541       -1.95462859077378
H            9.83979837079124        4.12467386799462       -1.93746006926843
H           10.18374979121855        1.79766379023691       -2.67661323406918
N            7.96518108022420        0.19587587670186       -3.56817222375578
C            6.63955680479591       -0.03983697821871       -3.84765310243986
H            8.73263724297485       -0.47269133213913       -3.65639030148933
H            6.24366386069359       -0.97437785243890       -4.21083060304648
