48
Energy =
C    -0.9443877    2.0014806   -6.5365013 
C    -1.1173685    1.8121974   -5.2040790 
C     0.1116038    2.7264742   -6.9922449 
C     0.9851918    3.2609071   -6.1091956 
C     0.8130333    3.0796096   -4.7755067 
C    -0.2336689    2.3432110   -4.3131644 
H    -1.9673861    1.2322286   -4.8556895 
H     1.8294549    3.8313474   -6.4816602 
H     1.5304386    3.5197203   -4.0872343 
H    -1.6521272    1.5708370   -7.2363968 
C    -0.4245725    2.1281431   -2.8258814 
C    -0.2135263    0.6552007   -2.4055329 
H    -1.4563248    2.4454992   -2.5596878 
H     0.2617304    2.7792988   -2.2380011 
C     1.2283485    0.2017040   -2.5847712 
O     0.3180174    2.9389766   -8.3593515 
H    -0.3727136    2.4961324   -8.9547368 
O     1.4744961   -0.8973570   -3.4027151 
N    -0.6631837    0.4721366   -1.0134727 
H    -0.8191298   -0.0135986   -3.0612169 
H    -0.2061744    1.1804717   -0.3900504 
H    -1.6972566    0.6283663   -0.9546339 
N     2.2061729    0.5706113   -1.5984150 
C     3.5936048    0.7168583   -2.1062692 
H     2.1571187   -0.1742738   -0.8671730 
C     3.7342097    1.7968004   -3.1825753 
O     4.2041802    3.0521482   -2.8172868 
O     3.4068109    1.5838941   -4.5226487 
H     2.9179238    0.7131510   -4.6665668 
C     4.2319363   -0.6495040   -2.4905975 
H     4.1854940    1.1202420   -1.2520858 
C     5.7445025   -0.5885533   -2.4502007 
H     3.8924026   -0.9983955   -3.4881593 
H     3.8898824   -1.4382729   -1.7856310 
C     6.5791806   -0.3254642   -3.4704940 
C     6.3124875   -0.0867115   -4.7806054 
C     7.3571679    0.1645685   -5.6206123 
C     8.6393361    0.1715016   -5.1460425 
C     8.8845942   -0.0723090   -3.8276668 
C     7.8342788   -0.3177808   -3.0164011 
H     5.2986346   -0.0879620   -5.1653211 
H     7.1674026    0.3654637   -6.6726475 
H     9.4659571    0.3761700   -5.8218577 
H     9.8953620   -0.0667833   -3.4341980 
N     7.8725775   -0.5840773   -1.6218106 
C     6.4782518   -0.7413205   -1.3332460 
H     8.6981450   -0.6494729   -0.9832454 
H     6.0759404   -0.9380760   -0.3418547 
