48
 energy: -9.286562755515 gnorm: 0.000524145565 xtb: 6.6.0 (2ccbbd7)
C            0.48314358943671        4.46408452949114        2.38905857366287
C            0.02787437093748        3.17689729604004        2.22470051526211
C            1.84079991688766        4.76073735564587        2.26357538631204
C            2.71874021347308        3.71915228518429        1.96752846127544
C            2.25677162319968        2.43255342866200        1.82792352900959
C            0.90585376460919        2.13892064359450        1.94614667783199
H           -1.02373177304081        2.96423921967440        2.31172240515895
H            3.75958300916380        3.94947874501546        1.81104786704471
H            2.94820125660752        1.63985977976378        1.59895822952685
H           -0.20615132543117        5.25872695548864        2.61172856598802
C            0.40274321181657        0.74027409715605        1.73709108110293
C            0.53521776282716        0.25735796285590        0.28768497851055
H           -0.64135803889967        0.67134420001055        2.05686550260504
H            0.96108227644959        0.05607782150383        2.38320952637425
C            1.99346972515000        0.13161151018117       -0.07130759879289
O            2.32798843216414        6.04293957983583        2.42561621599063
H            1.59174077676471        6.66428023911324        2.61387302630904
O            2.64988071926869       -0.72763966349002        0.47849618626660
N           -0.11643143104805       -1.02481232315493        0.06358679466514
H            0.06896356138026        0.99529516692079       -0.38222720787158
H            0.44716441710764       -1.74314447337667        0.49777715965356
H           -1.03361263262425       -1.04405751275883        0.49167494212897
N            2.53462722425491        1.02322984132646       -0.96966378016705
C            3.98034859157577        1.15878593129957       -1.06533568191236
H            2.00810935458478        1.84858721228230       -1.26017231098093
C            4.37482310613123        2.60031305593366       -0.81762280016242
O            4.98144169878683        2.84885089167318        0.20262341740335
O            3.99697374460908        3.51045357959025       -1.74706759218185
H            3.50030880623431        3.08366707430377       -2.47887604303227
C            4.53258465161023        0.59881063358573       -2.37592388920164
H            4.39677067838102        0.56533914345666       -0.23638873727774
C            4.44477577938906       -0.88908846666865       -2.43853735006095
H            5.57626464898397        0.90736510656416       -2.49608618509943
H            3.98737984643253        1.03168464010706       -3.21873001415310
C            3.26887786558744       -1.66605195990517       -2.65836423220431
C            1.93002924951203       -1.32518114213995       -2.91503319429145
C            1.00973640580794       -2.32740855768941       -3.04611622150383
C            1.38382620133854       -3.67609310697922       -2.93268426643598
C            2.68069427224302       -4.03271675570153       -2.68297072500387
C            3.63749076388535       -3.01997004707032       -2.54111394413622
H            1.64497307732062       -0.29019033626533       -2.97423141131758
H           -0.02300494388838       -2.07961802589146       -3.22694157078434
H            0.63368151794894       -4.44213818116487       -3.03862532853755
H            2.97493023918411       -5.06232546918318       -2.58590956062675
N            4.99208238146370       -3.05908398065065       -2.26299111139825
C            5.46541305491200       -1.77286581860267       -2.18691069852503
H            5.52294013576025       -3.91142184480476       -2.07402824869896
H            6.48070165527854       -1.50432332765795       -1.94290541802389
