48
Energy =
C     4.0531098   -3.7697338    3.1650456 
C     4.0875547   -2.8573438    2.1612241 
C     3.5353123   -3.4334722    4.3767234 
C     3.0557942   -2.1845275    4.5753620 
C     3.0878900   -1.2681913    3.5749468 
C     3.6068037   -1.5994281    2.3610795 
H     4.5040769   -3.1402457    1.1990551 
H     2.6453634   -1.9282781    5.5461097 
H     2.6960968   -0.2698356    3.7534588 
H     4.4402626   -4.7687157    2.9967234 
C     3.6236057   -0.5859647    1.2393145 
C     2.2291328   -0.4026198    0.5986077 
H     4.3618102   -0.8744343    0.4608446 
H     3.9783236    0.3905385    1.6437882 
C     2.2475339    0.7270697   -0.4141800 
O     3.4825786   -4.3504649    5.4312704 
H     3.8693237   -5.2607493    5.2076310 
O     2.2347195    2.0364504    0.0506163 
N     1.7410676   -1.6638216    0.0104741 
H     1.5112633   -0.0601835    1.3826083 
H     2.5249210   -2.1579826   -0.4740716 
H     1.4300845   -2.3007289    0.7821469 
N     2.4148179    0.4856983   -1.8183922 
C     3.5865821    1.0984710   -2.4714497 
H     1.8074973   -0.2260697   -2.2795957 
C     3.1597861    2.3240578   -3.2770020 
O     2.7674201    2.1744754   -4.6038747 
O     3.1393487    3.6005856   -2.7173194 
H     3.2717682    3.5713981   -1.7156712 
C     4.2941463    0.0650049   -3.3780083 
H     4.3241140    1.4518026   -1.7135209 
C     4.8511075   -1.1041101   -2.5990653 
H     5.1391315    0.5624819   -3.9066702 
H     3.6026707   -0.2754447   -4.1785328 
C     4.3634389   -2.3546739   -2.5447537 
C     3.2712024   -2.8957220   -3.1445936 
C     2.9817734   -4.2070708   -2.9042646 
C     3.7798325   -4.9509645   -2.0799926 
C     4.8729041   -4.3884479   -1.4915613 
C     5.1378026   -3.0896585   -1.7439215 
H     2.6320228   -2.3103180   -3.7970592 
H     2.1125167   -4.6637657   -3.3724511 
H     3.5441959   -5.9967812   -1.8961861 
H     5.5186283   -4.9647602   -0.8371251 
N     6.2082354   -2.3168426   -1.2215614 
C     5.9496531   -1.0435468   -1.8272818 
H     6.9715591   -2.5946380   -0.5615684 
H     6.5615756   -0.1550532   -1.6796911 
