48
Energy =
C    -1.0067933    0.8737007   -5.8801658 
C    -1.6635574    0.6951804   -4.7094912 
C     0.3322746    0.6713430   -5.9497898 
C     1.0121096    0.3069938   -4.8474936 
C     0.3860255    0.1788791   -3.6340612 
C    -0.9880929    0.3336701   -3.5850613 
H    -2.7402299    0.8414105   -4.6791225 
H     2.0693448    0.1095737   -4.9601517 
H     1.0921562   -0.3216539   -2.6208285 
H    -1.5601558    1.1635637   -6.7664322 
C    -1.7741809    0.1394036   -2.2961508 
C    -0.8965855    0.0825253   -1.0269267 
H    -2.3750243   -0.7924313   -2.3742920 
H    -2.4838779    0.9915177   -2.1920046 
C     0.2354142    1.0907545   -1.1304430 
O     1.0408520    0.8184375   -7.1452042 
H     0.4638063    1.0882841   -7.9348020 
O     0.0347306    2.3958630   -0.6918938 
N    -1.7163681    0.2797008    0.1783096 
H    -0.4168548   -0.9203901   -0.9623170 
H    -2.1029111    1.2550086    0.1904214 
H    -2.5292506   -0.3796459    0.1687035 
N     1.2547867    0.8607598   -2.1460138 
C     2.6055064    0.6502599   -1.5245833 
H     1.3777629    1.8202464   -2.6142922 
C     3.0501258    1.7645070   -0.5661843 
O     3.2714750    1.4484582    0.7671765 
O     3.3288321    3.0623945   -0.9975079 
H     3.0089533    3.2326753   -1.9353703 
C     3.6769051    0.3964425   -2.6103904 
H     2.5766784   -0.2668708   -0.8870958 
C     5.0220142    0.0402401   -2.0130599 
H     3.7873684    1.2860476   -3.2702475 
H     3.3455740   -0.4484064   -3.2471476 
C     5.4291915   -1.1786400   -1.6271862 
C     4.7887915   -2.3737133   -1.6994772 
C     5.4261959   -3.4806712   -1.2208873 
C     6.6785731   -3.3770106   -0.6807179 
C     7.3010757   -2.1654738   -0.6169045 
C     6.6508668   -1.0860854   -1.1001473 
H     3.7948838   -2.4553943   -2.1298153 
H     4.9355989   -4.4498057   -1.2690573 
H     7.1795642   -4.2631324   -0.2990243 
H     8.2920822   -2.0640513   -0.1877402 
N     7.1109736    0.2576257   -1.1168538 
C     5.9930624    0.9236711   -1.7186408 
H     8.0213175    0.6528416   -0.7868929 
H     5.9306550    1.9991016   -1.8741186 
