48
Energy =
C    -0.2933565    5.2687959   -0.2413578 
C     0.7299370    4.9406889    0.5877030 
C    -1.1462046    4.3086013   -0.6892637 
C    -0.9665886    3.0244690   -0.3050901 
C     0.0548868    2.6909052    0.5233682 
C     0.9116598    3.6482005    0.9748034 
H     1.4034990    5.7190042    0.9367641 
H    -1.6494393    2.2656863   -0.6720943 
H     0.1865382    1.6503747    0.8145547 
H    -0.4293809    6.3006476   -0.5456425 
C     2.0595299    3.2736866    1.8901541 
C     3.3332508    2.8133099    1.1395291 
H     1.7286650    2.4545076    2.5698366 
H     2.3107318    4.1270904    2.5573854 
C     3.0826046    1.5959848    0.2520725 
O    -2.2133200    4.6137008   -1.5414848 
H    -2.2678123    5.5911734   -1.8057289 
O     2.8494230    0.3689762    0.8593920 
N     3.9648237    3.9376083    0.4226133 
H     4.0542675    2.4415233    1.9056970 
H     3.2908431    4.3657295   -0.2557340 
H     4.2172200    4.6889703    1.1077933 
N     2.8839665    1.7048427   -1.1676313 
C     4.1739154    1.8268069   -1.8887546 
H     2.2492059    2.5186078   -1.3358382 
C     4.0791599    2.8215513   -3.0469007 
O     3.2745669    2.5303475   -4.1412651 
O     4.7439017    4.0490831   -3.0198350 
H     5.2477288    4.2059106   -2.1594053 
C     4.5709470    0.4179198   -2.3782260 
H     4.9829026    2.2061352   -1.2207940 
C     6.0037584    0.3688302   -2.8633842 
H     3.8649510    0.0752535   -3.1672893 
H     4.4529586   -0.3057492   -1.5392958 
C     6.4425302    0.4818400   -4.1283846 
C     5.7480130    0.6308840   -5.2858838 
C     6.4459128    0.7280123   -6.4534658 
C     7.8120036    0.6730007   -6.4489050 
C     8.4890720    0.5209881   -5.2757667 
C     7.7763895    0.4280877   -4.1333854 
H     4.6635324    0.6772041   -5.2979200 
H     5.9110878    0.8543975   -7.3920034 
H     8.3601126    0.7539820   -7.3842802 
H     9.5727347    0.4779063   -5.2547496 
N     8.2854902    0.2732380   -2.8160416 
C     7.0717254    0.2475269   -2.0547714 
H     9.2777719    0.1993754   -2.4936434 
H     7.0270720    0.1506199   -0.9720410 
