48
Energy =
C    -1.8898189    0.1346220   -5.7241896 
C    -1.7965244    0.4919792   -4.4153805 
C    -0.7825095    0.1435271   -6.5188691 
C     0.4103989    0.5143963   -5.9984291 
C     0.4946659    0.8698467   -4.6939233 
C    -0.5929261    0.8494931   -3.8910230 
H    -2.6898678    0.4918469   -3.7967582 
H     1.2906186    0.5237881   -6.6316947 
H     1.4785882    1.1807626   -4.1299455 
H    -2.8513797   -0.1543508   -6.1343725 
C    -0.4549575    1.3068719   -2.4463625 
C     0.8263305    0.7753259   -1.7297118 
H    -1.3485871    0.9779258   -1.8719328 
H    -0.4503370    2.4195835   -2.4291405 
C     2.1401684    1.4135040   -2.2454827 
O    -0.8444460   -0.2250270   -7.8664854 
H    -1.7750501   -0.4732040   -8.1830914 
O     2.4061769    1.4730335   -3.6170386 
N     0.6672158    0.9521001   -0.2744324 
H     0.9262785   -0.3138425   -1.9434781 
H     0.3853301    1.9393045   -0.0605575 
H    -0.0982536    0.3280783    0.0758050 
N     3.1681344    1.8049877   -1.3226102 
C     4.6010883    1.5034832   -1.5440707 
H     2.8651582    2.1874332   -0.4007112 
C     5.3577816    2.7477498   -2.0028378 
O     4.6915136    3.7882930   -2.6378740 
O     6.7393096    2.8571168   -1.8217518 
H     7.1286896    2.0615783   -1.3397554 
C     4.8822980    0.3099184   -2.4973839 
H     5.0277422    1.2503599   -0.5524839 
C     4.1715088   -0.9695045   -2.1086325 
H     5.9741355    0.1037924   -2.5174791 
H     4.6139659    0.5999781   -3.5389152 
C     4.3900612   -1.7258557   -1.0196854 
C     5.2903051   -1.5726008   -0.0137820 
C     5.3147131   -2.5033761    0.9828074 
C     4.4562080   -3.5669862    0.9560196 
C     3.5713492   -3.7096985   -0.0706479 
C     3.5626157   -2.7735797   -1.0424335 
H     5.9900344   -0.7442932    0.0027007 
H     6.0251036   -2.4024712    1.8001879 
H     4.4845078   -4.3066313    1.7525893 
H     2.8921159   -4.5546467   -0.1131550 
N     2.7477953   -2.7555083   -2.2054927 
C     3.2162204   -1.5633318   -2.8476762 
H     2.0042550   -3.4272830   -2.5067722 
H     2.8423828   -1.1925281   -3.8003548 
