48
Energy =
C    -2.5897513    1.9385542    0.9038275 
C    -1.3989647    2.0729958    1.5402225 
C    -2.6969363    2.2434147   -0.4169872 
C    -1.6101057    2.6813786   -1.0922081 
C    -0.4162814    2.8159211   -0.4614995 
C    -0.3024618    2.5100854    0.8609328 
H    -1.3279396    1.8248059    2.5956131 
H    -1.7086911    2.9229814   -2.1450158 
H     0.4449072    3.1705788   -1.0239721 
H    -3.4552870    1.5857100    1.4539509 
C     1.0305540    2.6496777    1.5669077 
C     1.6363597    1.2844714    1.9716626 
H     0.8908929    3.2725142    2.4771320 
H     1.7536491    3.2015201    0.9232679 
C     1.7726405    0.3232347    0.7973430 
O    -3.9096623    2.1181198   -1.1025057 
H    -4.6727655    1.7717501   -0.5312641 
O     1.0363184   -0.8552372    0.7955766 
N     2.9273649    1.4957961    2.6518047 
H     0.9412125    0.7768054    2.6820276 
H     3.4973233    2.2222364    2.1551631 
H     2.7484664    1.8740291    3.6122264 
N     2.3854310    0.7367394   -0.4271071 
C     3.8529828    0.8321148   -0.4637549 
H     1.7736552    0.9353863   -1.2487269 
C     4.2803237    2.2849201   -0.5950926 
O     3.5533505    3.1438454   -1.4107457 
O     5.4113633    2.7779373    0.0562921 
H     5.8932445    2.0707788    0.5907379 
C     4.3830794   -0.0025503   -1.6448295 
H     4.2931090    0.4407654    0.4833736 
C     4.1551271   -1.4802665   -1.4161677 
H     5.4690506    0.1852861   -1.7963936 
H     3.8775415    0.3155567   -2.5852844 
C     4.9345255   -2.3138279   -0.7091548 
C     6.1044249   -2.0740176   -0.0628189 
C     6.7008883   -3.1055305    0.6013453 
C     6.1241178   -4.3455789    0.6121464 
C     4.9469510   -4.5615665   -0.0409744 
C     4.3785045   -3.5261715   -0.6935556 
H     6.5611585   -1.0894168   -0.0651513 
H     7.6377550   -2.9406411    1.1280329 
H     6.6031800   -5.1619067    1.1472151 
H     4.4717378   -5.5368430   -0.0366257 
N     3.1559486   -3.5335130   -1.4158954 
C     3.0802840   -2.1666757   -1.8423391 
H     2.4971367   -4.3241942   -1.6023249 
H     2.2437580   -1.7408453   -2.3918054 
