48
Energy =
C     1.4792031   -4.5678619    1.3154219 
C     1.4971132   -3.2152855    1.2049767 
C     2.4793606   -5.2131647    1.9728848 
C     3.4863774   -4.4987751    2.5243832 
C     3.5089600   -3.1463087    2.4178632 
C     2.5142443   -2.4964139    1.7548882 
H     0.6927370   -2.7157007    0.6695549 
H     4.2773833   -5.0252287    3.0470674 
H     4.3345261   -2.5917106    2.8557667 
H     0.6662083   -5.1328537    0.8714387 
C     2.5726349   -0.9997213    1.5587521 
C     3.1651716   -0.6642272    0.1620899 
H     3.1619385   -0.5082153    2.3698242 
H     1.5427595   -0.5796881    1.6724035 
C     2.7829872    0.7004731   -0.3411738 
O     2.5000703   -6.6063249    2.0894278 
H     1.6952719   -7.0668000    1.6778651 
O     2.2969559    1.6553931    0.5356529 
N     4.6393494   -0.8115137    0.1936941 
H     2.6829647   -1.3135730   -0.6269961 
H     5.0664329   -0.1740234    0.9148899 
H     4.9213933   -1.7929170    0.4363386 
N     2.5971416    0.9003770   -1.7440701 
C     3.7877159    0.8373577   -2.6191458 
H     1.6228296    0.9896379   -2.1165283 
C     4.1394420    2.2199732   -3.1687135 
O     4.4865160    2.3703581   -4.5067544 
O     4.2063152    3.3385262   -2.3392578 
H     3.9031694    3.1287831   -1.3982354 
C     3.5312189   -0.1917143   -3.7498551 
H     4.6963073    0.5277465   -2.0519698 
C     3.2759498   -1.5790648   -3.2100486 
H     4.4005246   -0.2282294   -4.4438149 
H     2.6588990    0.1309658   -4.3639263 
C     4.1931229   -2.4499789   -2.7577143 
C     5.5468815   -2.3562388   -2.7368547 
C     6.2568354   -3.3642437   -2.1526394 
C     5.6095086   -4.4327205   -1.5949744 
C     4.2482836   -4.5015759   -1.6212760 
C     3.5698551   -3.4991956   -2.2173815 
H     6.0599141   -1.4996992   -3.1645877 
H     7.3429754   -3.3141399   -2.1248907 
H     6.1818939   -5.2294625   -1.1257131 
H     3.7185700   -5.3354101   -1.1715337 
N     2.1598174   -3.3486518   -2.3014521 
C     2.0547444   -2.0828469   -2.9577147 
H     1.3985325   -3.9604444   -1.9271425 
H     1.1165603   -1.5663233   -3.1166647 
