48
Energy =
C    -2.4978543    1.3228831    2.4752062 
C    -2.0249612    0.5539660    1.4618140 
C    -1.6395730    1.8643841    3.3807511 
C    -0.3120851    1.6338176    3.2636459 
C     0.1661619    0.8652585    2.2527351 
C    -0.6891364    0.3169348    1.3471023 
H    -2.7228240    0.1337018    0.7423616 
H     0.3629806    2.0749370    3.9883441 
H     1.2368992    0.6960171    2.1712954 
H    -3.5637690    1.5047276    2.5581454 
C    -0.1539530   -0.5275873    0.2121851 
C     0.4942344    0.3259468   -0.9024280 
H    -0.9566302   -1.1607098   -0.2284659 
H     0.6003110   -1.2354561    0.6217905 
C     1.1899736   -0.5659175   -1.9153858 
O    -2.0947142    2.6599843    4.4378999 
H    -3.1001376    2.7901604    4.4499939 
O     0.4230096   -1.4260754   -2.6984274 
N    -0.5097069    1.1758621   -1.5633252 
H     1.2798285    0.9781179   -0.4571119 
H    -1.2968700    0.5809444   -1.9149254 
H    -0.8991409    1.8626348   -0.8769639 
N     2.5880706   -0.8574116   -1.7627253 
C     3.4017989   -0.3648646   -2.9036901 
H     2.6683836   -1.8938017   -1.6590658 
C     3.3863496    1.1731334   -2.9805465 
O     3.2296299    1.9015312   -1.8081977 
O     3.6602623    1.8946775   -4.1466505 
H     3.9540996    1.3353112   -4.9250922 
C     3.0343164   -1.0989036   -4.2340097 
H     4.4644942   -0.5932836   -2.6732623 
C     3.2135012   -2.6052703   -4.1437151 
H     3.6998918   -0.7744580   -5.0574955 
H     2.0021263   -0.8214369   -4.5344104 
C     2.3000691   -3.5668436   -4.3872222 
C     0.9891122   -3.4727047   -4.7336777 
C     0.2856118   -4.6233947   -4.9439933 
C     0.8948897   -5.8388160   -4.8124085 
C     2.2102797   -5.9129127   -4.4672687 
C     2.8839174   -4.7622966   -4.2597506 
H     0.4913198   -2.5121504   -4.8224259 
H    -0.7683190   -4.5739779   -5.2096629 
H     0.3269810   -6.7512009   -4.9801529 
H     2.7092477   -6.8705816   -4.3607803 
N     4.2547593   -4.6290478   -3.9161478 
C     4.3884969   -3.2043199   -3.8699103 
H     4.9713166   -5.3737107   -3.7490502 
H     5.3240933   -2.6874353   -3.6678141 
