48
Energy =
C     0.1713920    5.7807156   -6.2007403 
C     0.0502557    5.3116004   -4.9326826 
C     1.4030996    5.9922466   -6.7375440 
C     2.5064041    5.7365940   -5.9994826 
C     2.3924000    5.2675731   -4.7323725 
C     1.1610595    5.0533989   -4.1888493 
H    -0.9416834    5.1390563   -4.5221235 
H     3.4838373    5.9083198   -6.4366865 
H     3.2963175    5.0604551   -4.1619091 
H    -0.7192420    5.9821341   -6.7864473 
C     1.0356681    4.4898029   -2.7899789 
C     1.2993641    2.9638741   -2.7722604 
H     0.0366828    4.7086334   -2.3526838 
H     1.7704827    5.0111687   -2.1294126 
C     1.6158514    2.4753359   -1.3712610 
O     1.5624974    6.4667431   -8.0431723 
H     0.6892839    6.6469767   -8.5265469 
O     0.7590702    2.8176408   -0.3305428 
N     0.1592479    2.2236692   -3.3493310 
H     2.2228092    2.7505673   -3.3558757 
H    -0.7176804    2.4463034   -2.8180283 
H     0.0151253    2.5049062   -4.3475923 
N     2.4812714    1.3456973   -1.1925192 
C     3.9472358    1.5293248   -1.0661153 
H     2.0456156    0.3981865   -1.2351517 
C     4.4448856    2.9832831   -1.0829897 
O     3.9716638    3.8843334   -2.0281917 
O     5.4561380    3.4179235   -0.2294296 
H     5.7614490    2.7011430    0.4099010 
C     4.6812838    0.6510050   -2.1073251 
H     4.2237951    1.1369301   -0.0640217 
C     4.2673381    0.9411794   -3.5359341 
H     4.4740193   -0.4190184   -1.8844877 
H     5.7815881    0.7759468   -2.0021569 
C     4.7900089    1.8593262   -4.3678337 
C     5.8139198    2.7302890   -4.1769905 
C     6.1374090    3.5848280   -5.1898855 
C     5.4423686    3.5558138   -6.3668937 
C     4.4163981    2.6748112   -6.5363399 
C     4.1167706    1.8391446   -5.5201397 
H     6.3558121    2.7689386   -3.2366150 
H     6.9483686    4.2967466   -5.0555887 
H     5.7060583    4.2402612   -7.1695848 
H     3.8501644    2.6435307   -7.4612935 
N     3.0825520    0.8670305   -5.4883763 
C     3.2512629    0.3289041   -4.1707670 
H     2.3834348    0.6190325   -6.2255643 
H     2.6191052   -0.4424232   -3.7373495 
