48
Energy =
C    -2.0126228   -1.9077249   -2.0582634 
C    -1.0302683   -2.1662877   -1.1580704 
C    -2.5923968   -0.6783149   -2.1033804 
C    -2.1818125    0.2860928   -1.2493117 
C    -1.2002604    0.0333387   -0.3473045 
C    -0.6234857   -1.1991004   -0.2909915 
H    -0.5705218   -3.1512649   -1.1385400 
H    -2.6470485    1.2644740   -1.3012446 
H    -0.8740559    0.8255682    0.3231169 
H    -2.3314365   -2.6857518   -2.7436101 
C     0.4909133   -1.4790647    0.6941258 
C     1.8822237   -1.2799983    0.0551610 
H     0.3978273   -2.5228468    1.0665508 
H     0.3937166   -0.8207445    1.5872360 
C     2.0837302    0.1491993   -0.4166673 
O    -3.6088397   -0.3794609   -3.0158256 
H    -3.8468592   -1.1476539   -3.6337620 
O     1.9202601    1.2128999    0.4681597 
N     2.9311252   -1.6669314    1.0119183 
H     1.9674794   -1.9284222   -0.8489753 
H     2.8611916   -1.0733231    1.8741822 
H     2.7988608   -2.6643970    1.3017972 
N     2.3099127    0.4242932   -1.8055663 
C     3.6357711    1.0559645   -2.0085971 
H     1.5496078    1.0926006   -2.0745166 
C     3.6918252    1.8195107   -3.3348920 
O     3.0777568    1.2899310   -4.4638223 
O     4.3955430    3.0186159   -3.4614507 
H     4.8806301    3.2734609   -2.6140233 
C     4.7177480   -0.0472382   -1.9641276 
H     3.8341487    1.8081526   -1.2063828 
C     6.1161064    0.5280493   -2.0048802 
H     4.5587897   -0.7655930   -2.7988268 
H     4.6140249   -0.6408665   -1.0289564 
C     6.8766742    0.7404527   -3.0915286 
C     6.6213718    0.4835591   -4.4004791 
C     7.5711612    0.8115370   -5.3225556 
C     8.7485011    1.3846460   -4.9283212 
C     8.9821297    1.6358539   -3.6089049 
C     8.0271185    1.3021783   -2.7154930 
H     5.6827375    0.0402213   -4.7203693 
H     7.3860367    0.6230791   -6.3774738 
H     9.4980255    1.6471349   -5.6706995 
H     9.9075890    2.0961149   -3.2801333 
N     8.0644745    1.4925664   -1.3079127 
C     6.7861996    0.9692435   -0.9261246 
H     8.8194945    1.9048131   -0.7132945 
H     6.4115447    0.9448437    0.0948320 
