48
Energy =
C    -2.1885448    4.0046836   -1.5034857 
C    -1.4473709    4.2973395   -2.6020816 
C    -1.8258188    4.4886983   -0.2855200 
C    -0.7241997    5.2645168   -0.1754510 
C     0.0198578    5.5604164   -1.2697517 
C    -0.3354518    5.0760776   -2.4925766 
H    -1.7474016    3.9007615   -3.5685354 
H    -0.4447851    5.6453184    0.8005872 
H     0.9036609    6.1838242   -1.1592212 
H    -3.0710667    3.3814364   -1.6015102 
C     0.5042824    5.3908423   -3.7148039 
C     1.6523906    4.3790355   -3.9540673 
H     0.9388868    6.4113336   -3.6123024 
H    -0.1420746    5.4359927   -4.6186557 
C     2.6305453    4.3205094   -2.7858247 
O    -2.5657493    4.2046176    0.8662563 
H    -3.3775129    3.6191926    0.7013602 
O     3.3790575    5.4584904   -2.4988363 
N     1.1256107    3.0543049   -4.3243352 
H     2.2536512    4.7564025   -4.8122328 
H     0.5914100    2.6441842   -3.5223793 
H     0.4675809    3.1461080   -5.1330601 
N     2.5053378    3.3062663   -1.7697776 
C     3.6704960    2.3902516   -1.7390420 
H     2.4386513    3.8103191   -0.8556316 
C     5.0127106    3.1058315   -1.5103220 
O     5.7847215    3.5113362   -2.5938980 
O     5.4713890    3.3875703   -0.2210125 
H     4.8042655    3.1209419    0.4872316 
C     3.6559405    1.4832769   -2.9929054 
H     3.5347335    1.7186562   -0.8620048 
C     4.6207080    0.3219540   -2.8675882 
H     3.8622823    2.0786483   -3.9079722 
H     2.6322602    1.0686187   -3.1246828 
C     5.8076770    0.1708492   -3.4810202 
C     6.4459686    0.9781665   -4.3680223 
C     7.6609250    0.5847861   -4.8466525 
C     8.2141704   -0.5973707   -4.4403049 
C     7.5556189   -1.3938824   -3.5519584 
C     6.3555322   -0.9826304   -3.0912004 
H     6.0157992    1.9195019   -4.6940219 
H     8.1931509    1.2179045   -5.5524193 
H     9.1839454   -0.9020440   -4.8253675 
H     7.9809009   -2.3343623   -3.2188173 
N     5.5147434   -1.6609436   -2.1689886 
C     4.4140977   -0.7486966   -2.0799291 
H     5.6608238   -2.5779118   -1.6883312 
H     3.5363818   -0.9066188   -1.4581785 
