48
Energy =
C     2.5684119    0.1761161    4.1294937 
C     2.2845830    1.1276329    3.2038448 
C     1.6126573   -0.7121297    4.5117954 
C     0.3777674   -0.6407557    3.9657124 
C     0.0886371    0.3081288    3.0396535 
C     1.0420711    1.1991647    2.6507421 
H     3.0598587    1.8314111    2.9093031 
H    -0.3758662   -1.3545636    4.2794354 
H    -0.9087059    0.3458231    2.6098380 
H     3.5620113    0.1272917    4.5622118 
C     0.7253614    2.2502831    1.6048495 
C     1.1014167    1.8236577    0.1628880 
H     1.2552425    3.1969816    1.8583843 
H    -0.3570669    2.5037063    1.6374600 
C     2.6010260    1.6299744   -0.0184205 
O     1.8729142   -1.7059801    5.4608179 
H     2.8195389   -1.6889266    5.8241718 
O     3.4806303    2.5846315    0.4819095 
N     0.3283965    0.6365557   -0.2493604 
H     0.8459780    2.6662239   -0.5227680 
H     0.5833188   -0.1867618    0.3450561 
H    -0.6954664    0.8168856   -0.1247742 
N     3.0995516    0.6773258   -0.9659787 
C     3.4142357    1.1063642   -2.3487081 
H     3.1956608   -0.3104159   -0.6443152 
C     2.8629397    2.4928101   -2.7175874 
O     1.6078869    2.6119682   -3.3074074 
O     3.5859469    3.6569458   -2.4558879 
H     4.3967560    3.4699341   -1.8810692 
C     2.8996871    0.0325518   -3.3347321 
H     4.5194170    1.1784943   -2.4472601 
C     3.6505200   -1.2743224   -3.2053127 
H     2.9920103    0.3923359   -4.3838173 
H     1.8124276   -0.1341346   -3.1500948 
C     4.8830582   -1.5415481   -3.6636069 
C     5.7433538   -0.7531373   -4.3577587 
C     6.9558105   -1.2701331   -4.7089197 
C     7.2856309   -2.5524141   -4.3656878 
C     6.4043947   -3.3258108   -3.6695577 
C     5.2113845   -2.7915679   -3.3338861 
H     5.4809981    0.2642251   -4.6327101 
H     7.6633640   -0.6597024   -5.2650350 
H     8.2539078   -2.9572811   -4.6491801 
H     6.6498245   -4.3446169   -3.3897200 
N     4.1596278   -3.4203526   -2.6149157 
C     3.1869499   -2.3680706   -2.5750927 
H     4.1108569   -4.3878130   -2.2211041 
H     2.2156063   -2.4459899   -2.0915874 
