48
Energy =
C    -0.7024448   -3.6931336   -5.7380369 
C    -0.4018159   -2.3718790   -5.6619400 
C    -0.9469559   -4.4048448   -4.6055399 
C    -0.8884132   -3.7883182   -3.4037640 
C    -0.5920636   -2.4668904   -3.3223922 
C    -0.3423515   -1.7484959   -4.4517441 
H    -0.2060370   -1.8180497   -6.5761988 
H    -1.0775386   -4.3673697   -2.5068851 
H    -0.5412840   -1.9924349   -2.3463711 
H    -0.7457958   -4.1787779   -6.7069283 
C    -0.0065290   -0.2714854   -4.3674167 
C     1.5026942    0.0336463   -4.1888297 
H    -0.5777546    0.1944123   -3.5339946 
H    -0.3637480    0.2401093   -5.2884176 
C     2.0291045   -0.3421519   -2.8092435 
O    -1.2618010   -5.7670428   -4.6492850 
H    -1.2743317   -6.1560197   -5.5856359 
O     2.1097636   -1.6715428   -2.4110654 
N     2.3098955   -0.5719454   -5.2643426 
H     1.6154879    1.1404629   -4.2565298 
H     2.2945062   -1.6177474   -5.1694761 
H     1.8986667   -0.3332275   -6.1972440 
N     2.4058570    0.6715325   -1.8673076 
C     3.7230926    1.3420685   -1.9649514 
H     1.7154503    0.9254948   -1.1261229 
C     3.5605184    2.8156946   -2.3314552 
O     2.6613376    3.1861397   -3.3228664 
O     4.3521424    3.8070829   -1.7515352 
H     5.0275636    3.4317678   -1.1021893 
C     4.6873507    0.6163127   -2.9395767 
H     4.1753592    1.3093535   -0.9489481 
C     6.0946776    1.1608806   -2.8398208 
H     4.3182199    0.7117496   -3.9883919 
H     4.7006629   -0.4749645   -2.7202641 
C     7.0351496    0.7945352   -1.9552030 
C     6.9912983   -0.1475869   -0.9782433 
C     8.0938753   -0.3181635   -0.1935129 
C     9.2084385    0.4493905   -0.3915574 
C     9.2267952    1.3933309   -1.3752504 
C     8.1251991    1.5402991   -2.1407284 
H     6.1054139   -0.7548121   -0.8148923 
H     8.0858350   -1.0673456    0.5948060 
H    10.0824715    0.3087007    0.2395539 
H    10.1001248    2.0149481   -1.5414957 
N     7.9293831    2.4714810   -3.1951607 
C     6.5847622    2.1649867   -3.5886050 
H     8.5890250    3.1856389   -3.5809610 
H     6.0261348    2.7060396   -4.3521876 
