48
 energy: -9.390749995217 gnorm: 0.000779990992 xtb: 6.6.0 (2ccbbd7)
C            3.79263370018226       -0.42330804951365        4.99592421265250
C            3.13586509387185       -0.16582224207035        3.81578260093300
C            4.84760067737012        0.38881080243105        5.41346617210829
C            5.21369527847075        1.46379848341872        4.60417793025465
C            4.55169508200237        1.71521255648878        3.42647858382974
C            3.50025714635596        0.90772168905171        3.01676696530746
H            2.32786595171523       -0.80267684157695        3.49845020556231
H            6.02723860449753        2.08926834463822        4.92561519474538
H            4.84791700065185        2.54603055699384        2.80905766613227
H            3.50041776022074       -1.25670504760304        5.60918607881693
C            2.81302684545366        1.15288999369158        1.71061486279292
C            3.32403882825399        0.24743803299045        0.58996141602950
H            2.94931373464566        2.19778347268670        1.41525367175544
H            1.73199219210379        1.02140300903889        1.82717281673528
C            2.66171493588754        0.58425938484233       -0.71397431288722
O            5.53061454607013        0.15566090789054        6.59167202819610
H            5.15766924982997       -0.62904516823430        7.04809980257556
O            1.52217280903938        0.23369550654726       -0.94638755769892
N            4.79572382057060        0.37009462810211        0.39811194664509
H            3.09169769681307       -0.80013521765900        0.83143319548811
H            4.99239527940651        1.54359582832432        0.51698139647958
H            5.37047380007530       -0.05860687628858        1.14642808212241
N            3.42703384110942        1.29981804745714       -1.59794019848252
C            4.84423977849406        1.61061385124270       -1.35634699219826
H            3.10378232594812        1.42917982258895       -2.55454992164370
C            5.06066949751461        3.11138633370289       -1.32380527045631
O            6.20663199637203        3.50590093204461       -1.35615326264410
O            3.95946590721071        3.89619188897735       -1.24257584692110
H            3.14382882646474        3.34489147739204       -1.23423350510479
C            5.72126121667024        0.95607099993193       -2.42135707793483
H            5.25072375007678        1.23300075668387       -0.23976903251186
C            5.42353652045895        1.46770388182598       -3.78902925382577
H            5.58125265493133       -0.12821391846837       -2.39337872158898
H            6.77500739913770        1.14594734215902       -2.19264617210834
C            4.64640862616967        0.82953982612969       -4.80039697988746
C            3.98078541176878       -0.40686386957667       -4.85787620915764
C            3.27737306074347       -0.71972838915133       -5.98787504714677
C            3.21190173471002        0.16923897736344       -7.07316094840734
C            3.84492029404808        1.38127270239434       -7.03596944086932
C            4.57030197453909        1.72237060993062       -5.88760489175297
H            4.01908751557840       -1.07739627391494       -4.01792954830296
H            2.75790573994227       -1.66180512843520       -6.04640167915335
H            2.64706526172128       -0.10836626713031       -7.94771913769285
H            3.79237785042245        2.07128868758192       -7.85893238185724
N            5.26940059491017        2.86501890597530       -5.53856356503646
C            5.76333981832027        2.70791518445201       -4.26801085133102
H            5.34407316507835        3.70472931563917       -6.11556367457829
H            6.28298808373294        3.46339244230147       -3.69907759766282
