48
Energy =
C     0.8838576   -0.4389164   -6.2744107 
C     0.7180611    0.8021369   -5.7510717 
C     0.3422594   -1.5206932   -5.6534578 
C    -0.3662306   -1.3517038   -4.5142542 
C    -0.5347975   -0.1130276   -3.9864562 
C     0.0111321    0.9728446   -4.6000724 
H     1.1609907    1.6561029   -6.2567672 
H    -0.7952919   -2.2217683   -4.0294897 
H    -1.1024276    0.0014635   -3.0654748 
H     1.4524754   -0.5637353   -7.1894970 
C    -0.1480770    2.3521729   -3.9936122 
C     0.9590666    2.7053404   -2.9619794 
H    -1.1418582    2.4209589   -3.4946107 
H    -0.1674812    3.1206690   -4.7972378 
C     1.0055951    1.7292492   -1.8086680 
O     0.5004128   -2.8138910   -6.1621872 
H     1.0329817   -2.8536735   -7.0241317 
O    -0.0487288    1.6806242   -0.9046421 
N     2.2813282    2.8382122   -3.6087172 
H     0.7007520    3.6801445   -2.4859051 
H     2.5404726    1.9214859   -4.0474617 
H     2.1739448    3.4683630   -4.4404100 
N     1.9394740    0.6477920   -1.8368814 
C     3.3780056    0.9454783   -1.6629597 
H     1.5633322   -0.3149266   -1.9758414 
C     3.7725359    2.4372702   -1.8365226 
O     3.2159102    3.3127616   -2.8131964 
O     4.7923516    2.9702315   -1.0428252 
H     5.2076209    2.2919025   -0.4226734 
C     4.2043444    0.0323017   -2.6114923 
H     3.6302376    0.7051212   -0.6068839 
C     4.6827649   -1.2500098   -1.9486994 
H     5.0795031    0.5992793   -2.9940207 
H     3.6033839   -0.2374861   -3.5085565 
C     5.8873816   -1.8329755   -2.0996052 
C     6.9690402   -1.4381603   -2.8237637 
C     8.0828756   -2.2253107   -2.8106920 
C     8.1015666   -3.3845524   -2.0871254 
C     7.0056138   -3.7651766   -1.3728158 
C     5.9164060   -2.9689359   -1.3986498 
H     6.9658549   -0.5239244   -3.4072530 
H     8.9604715   -1.9298753   -3.3810151 
H     8.9927922   -4.0072002   -2.0837828 
H     7.0016944   -4.6849716   -0.7978335 
N     4.6795014   -3.1934170   -0.7413247 
C     3.9338946   -2.0440419   -1.1578116 
H     4.3917337   -3.9835869   -0.1196299 
H     2.9041153   -1.8580180   -0.8688918 
