48
Energy =
C     1.0938619   -0.1720019    2.4693723 
C     2.0496921    0.5345386    1.8142231 
C     0.4322115    0.3834910    3.5189867 
C     0.7315574    1.6440608    3.9053650 
C     1.6855658    2.3556391    3.2532011 
C     2.3522334    1.8046866    2.2011292 
H     2.5691549    0.0742982    0.9790707 
H     0.1953309    2.0761429    4.7430723 
H     1.9072352    3.3682065    3.5787232 
H     0.8597198   -1.1820365    2.1511121 
C     3.4095463    2.6027819    1.4638466 
C     2.8603164    3.3527833    0.2195280 
H     4.2392460    1.9262853    1.1590390 
H     3.8739604    3.3401289    2.1555422 
C     2.4230134    2.4062645   -0.9016176 
O    -0.5558947   -0.3182819    4.2172438 
H    -0.7322577   -1.2488643    3.8552919 
O     1.1027727    2.4211260   -1.3487890 
N     1.7929755    4.2945243    0.6107246 
H     3.6871196    3.9487282   -0.2294727 
H     0.9260016    3.7683529    0.8782186 
H     2.0900110    4.8723562    1.4305051 
N     3.2518943    1.2889418   -1.2822580 
C     4.4707038    1.5998821   -2.0908545 
H     2.6158901    0.6178011   -1.7694957 
C     4.7124254    3.0563011   -2.5275216 
O     3.6622000    3.9088590   -2.8298662 
O     6.0063459    3.5567724   -2.6571410 
H     6.7148551    2.8604266   -2.4808806 
C     4.6500840    0.6029294   -3.2706787 
H     5.3229089    1.3946170   -1.4064261 
C     3.4443322    0.4288480   -4.1885960 
H     4.9142711   -0.3749230   -2.8180754 
H     5.5213441    0.9034629   -3.8946893 
C     3.0161679   -0.7314277   -4.7242257 
C     3.4980013   -1.9955324   -4.5774260 
C     2.8754674   -3.0107531   -5.2422117 
C     1.7950915   -2.7549885   -6.0387940 
C     1.3316336   -1.4816102   -6.1777482 
C     1.9626664   -0.4941567   -5.5089838 
H     4.3585555   -2.2131363   -3.9545012 
H     3.2419057   -4.0294899   -5.1397229 
H     1.3050648   -3.5696659   -6.5662486 
H     0.4781799   -1.2602274   -6.8098680 
N     1.6474357    0.8872877   -5.5330469 
C     2.6592917    1.4167633   -4.6651139 
H     0.8904986    1.3895402   -6.0522949 
H     2.7649903    2.4737989   -4.4436898 
