48
Energy =
C    -2.0326384    5.0268511   -0.5836878 
C    -0.8097029    4.9498655   -1.1702447 
C    -3.1373755    5.2728551   -1.3360460 
C    -3.0120831    5.4400356   -2.6714474 
C    -1.7934151    5.3632380   -3.2631515 
C    -0.6807685    5.1184288   -2.5159325 
H     0.0625607    4.7481891   -0.5524451 
H    -3.9016883    5.6344564   -3.2609850 
H    -1.7185763    5.4962469   -4.3394347 
H    -2.1267362    4.8887503    0.4885243 
C     0.6778102    5.0191306   -3.1879872 
C     1.1374448    3.5683490   -3.5060710 
H     1.4528652    5.5177556   -2.5598964 
H     0.6663978    5.5969848   -4.1380907 
C     1.7810285    2.8553633   -2.3272698 
O    -4.4099483    5.3576432   -0.7632434 
H    -4.4233555    5.2174622    0.2411472 
O     1.9325700    3.5011652   -1.1028644 
N     0.0476775    2.7664147   -4.0880865 
H     1.9617003    3.6361776   -4.2585268 
H    -0.7037221    2.6062013   -3.3757168 
H    -0.3754866    3.2763035   -4.8978962 
N     2.5708655    1.6902822   -2.5733145 
C     4.0288707    1.8519841   -2.4312460 
H     2.0881096    0.7934832   -2.8035522 
C     4.5548809    2.9339333   -3.3754799 
O     4.8424423    2.6285200   -4.6995231 
O     4.6376608    4.2677962   -2.9735684 
H     4.3014209    4.3887612   -2.0277662 
C     4.7134100    0.4851097   -2.6500818 
H     4.2460691    2.1880750   -1.3917624 
C     6.1779682    0.5198871   -2.2636653 
H     4.5822237    0.1624530   -3.7057406 
H     4.2063391   -0.2805721   -2.0227323 
C     7.2423467    0.5776072   -3.0829862 
C     7.3047108    0.6009844   -4.4398078 
C     8.5312256    0.6617883   -5.0328143 
C     9.6662030    0.6949509   -4.2716468 
C     9.5815242    0.6686357   -2.9117177 
C     8.3566790    0.6100186   -2.3478259 
H     6.4085726    0.5815427   -5.0518048 
H     8.6041581    0.6903633   -6.1173070 
H    10.6393927    0.7468807   -4.7530290 
H    10.4721433    0.6969134   -2.2933827 
N     8.0547089    0.5752770   -0.9600917 
C     6.6231460    0.5202626   -0.9941088 
H     8.7033944    0.5828149   -0.1399160 
H     5.9881604    0.4911044   -0.1116882 
