48
Energy =
C     2.1604048    6.6815386   -4.7751852 
C     2.3546190    5.5270860   -4.0877839 
C     0.9479539    7.2964507   -4.7506385 
C    -0.0635513    6.7512291   -4.0376174 
C     0.1233376    5.5968912   -3.3486959 
C     1.3357084    4.9784736   -3.3674614 
H     3.3345523    5.0467216   -4.1206908 
H    -1.0256100    7.2517839   -4.0274703 
H    -0.7046389    5.1742099   -2.7853991 
H     2.9778627    7.1102832   -5.3458013 
C     1.5466768    3.6823858   -2.6170415 
C     1.4489052    2.4505785   -3.5534304 
H     0.8189657    3.5817946   -1.7812051 
H     2.5441918    3.7200953   -2.1211801 
C     2.1302823    1.2414084   -2.9353994 
O     0.7146774    8.4856113   -5.4485343 
H     1.5229782    8.8293361   -5.9558675 
O     1.8247741    0.8600063   -1.6336917 
N     0.0418608    2.1523105   -3.8742462 
H     2.0034784    2.6553976   -4.5022609 
H    -0.4990620    1.9725694   -2.9933838 
H    -0.3969672    2.9705146   -4.3588761 
N     3.2601560    0.6458198   -3.5830441 
C     4.5879103    1.1442804   -3.1792279 
H     3.0995096   -0.1201122   -4.2750993 
C     4.7776475    2.5997803   -3.5897471 
O     5.0612288    3.5518343   -2.6213907 
O     4.5864703    3.0313544   -4.9030010 
H     4.4033887    2.2561495   -5.5257636 
C     5.6747743    0.2270152   -3.7757170 
H     4.6695070    1.1173870   -2.0657531 
C     7.0535214    0.6080639   -3.2837426 
H     5.6488340    0.2766282   -4.8868143 
H     5.4611975   -0.8298820   -3.5045772 
C     7.6486118    0.1955233   -2.1537234 
C     7.2064954   -0.6645682   -1.2002713 
C     8.0105660   -0.9094975   -0.1259995 
C     9.2279157   -0.2952055   -0.0197680 
C     9.6479686    0.5694555   -0.9867047 
C     8.8362552    0.7927591   -2.0414302 
H     6.2363534   -1.1462755   -1.2775790 
H     7.6795782   -1.5931235    0.6521762 
H     9.8611450   -0.4924355    0.8415687 
H    10.6065771    1.0717134   -0.9139796 
N     9.0724196    1.6655201   -3.1372896 
C     7.8624557    1.4950797   -3.8894301 
H     9.9058179    2.2631926   -3.3421147 
H     7.6101942    2.0484993   -4.7938894 
