48
Energy =
C    -2.9274263   -0.5523941   -1.1703038 
C    -1.8981185   -0.2607808   -2.0061200 
C    -2.6872612   -0.8281529    0.1398351 
C    -1.4181807   -0.8056661    0.6053203 
C    -0.3870945   -0.5131928   -0.2254015 
C    -0.6195005   -0.2441529   -1.5385937 
H    -2.1060901   -0.0421733   -3.0502226 
H    -1.2385740   -1.0241640    1.6519022 
H     0.6238185   -0.4951945    0.1671278 
H    -3.9423382   -0.5655343   -1.5527993 
C     0.5355094    0.0753313   -2.4621469 
C     1.1517269    1.4670426   -2.1773514 
H     0.2224488    0.0171791   -3.5286747 
H     1.3059612   -0.7155299   -2.3266013 
C     2.4567770    1.6610719   -2.9444255 
O    -3.7234361   -1.1363177    1.0272298 
H    -4.6445410   -1.1274485    0.6026991 
O     2.5392636    2.5901988   -3.9752086 
N     0.1820351    2.5313842   -2.4864677 
H     1.4229303    1.5414020   -1.1014742 
H    -0.1201049    2.4623182   -3.4876423 
H    -0.6707836    2.4302166   -1.8881063 
N     3.5356750    0.7284823   -2.7880970 
C     4.3343414    0.8037606   -1.5486940 
H     3.6699297   -0.0010771   -3.5241922 
C     5.3776598    1.9184080   -1.6024618 
O     5.6339390    2.6498939   -0.4484342 
O     6.1454067    2.1693520   -2.7399072 
H     5.8300069    1.6185090   -3.5247523 
C     5.0013238   -0.5622314   -1.2801746 
H     3.6796019    1.0459034   -0.6823738 
C     3.9740191   -1.6431163   -1.0255180 
H     5.6782020   -0.4936821   -0.3983323 
H     5.6408576   -0.8449337   -2.1466620 
C     3.2863682   -1.8479485    0.1087751 
C     3.3462611   -1.1886032    1.2944164 
C     2.5202975   -1.5922894    2.3024422 
C     1.6562738   -2.6355184    2.1118720 
C     1.6134768   -3.2818962    0.9120438 
C     2.4422871   -2.8657019   -0.0683570 
H     4.0331470   -0.3610182    1.4475227 
H     2.5507820   -1.0832275    3.2633068 
H     1.0012174   -2.9522892    2.9201027 
H     0.9316107   -4.1086470    0.7426176 
N     2.5459381   -3.3882408   -1.3848333 
C     3.5604592   -2.5396247   -1.9382053 
H     2.0204798   -4.1767171   -1.8280806 
H     3.9285187   -2.6066649   -2.9593942 
