48
 energy: -9.284422274130 gnorm: 0.000696337249 xtb: 6.6.0 (2ccbbd7)
C            3.21511960849584       -4.19490163281768       -2.58295532785590
C            3.57700336904051       -3.25516563477248       -1.64736061824459
C            2.16918196679210       -3.94556669314506       -3.47048750566920
C            1.49839352659793       -2.72784274170632       -3.37066921195346
C            1.86530255017045       -1.79768407664669       -2.42876421930154
C            2.91058659914282       -2.04007377514618       -1.54905602557964
H            4.40312236986098       -3.45200712281228       -0.98569739632131
H            0.68563521245446       -2.53688397766726       -4.04853389267542
H            1.32148036415740       -0.87388879765143       -2.35870123256320
H            3.74365645378486       -5.12907482391080       -2.64651838888407
C            3.42154508453777       -1.00531678034975       -0.58767298171441
C            2.38018426070569       -0.08359587043518        0.07792005839641
H            4.17906079704391       -0.41174189815896       -1.10372560791617
H            3.95957159964162       -1.52794817539860        0.21053974515442
C            1.68062315071464        0.86803481627905       -0.87357662463978
O            1.79155912727494       -4.86030295975697       -4.43466298182944
H            2.34069018775304       -5.67089181424258       -4.36392158337513
O            0.55544978514355        0.58634811881594       -1.23360711753131
N            1.38344452597065       -0.86448815782766        0.79110775862282
H            2.89430847227695        0.53568617083011        0.83156390901079
H            0.68938747597963       -0.23802008944841        1.17781721431716
H            0.89118804262478       -1.42808095550117        0.11293896933544
N            2.30099779562882        2.02740783761488       -1.30901451459085
C            3.75587407440185        2.17902108253649       -1.41327708802706
H            1.81356261312529        2.57945316299320       -2.00933751477291
C            4.17677810987692        3.61110905958100       -1.13396526140462
O            5.26671617339329        3.97735869110568       -1.51706587423114
O            3.29896821011172        4.37489604250826       -0.44011510621598
H            2.48757774297094        3.86104660973436       -0.22269330467133
C            4.22216719076999        1.69025014796900       -2.79741592549069
H            4.21695997217627        1.56205623997105       -0.63374912642586
C            5.59486357849808        1.10889602629018       -2.80719479390729
H            4.16969348392751        2.52149945628020       -3.50740069332771
H            3.51513291972030        0.93821610207621       -3.16122851741795
C            5.97209240789632       -0.18196578496073       -3.28309332310293
C            5.24678616333965       -1.23826376726448       -3.86047898408676
C            5.91537627759176       -2.37796453807732       -4.21057606719676
C            7.29899668656223       -2.50053304913426       -4.00510834338901
C            8.02603951611421       -1.48363673835484       -3.44897600982160
C            7.36083645649758       -0.30684878970643       -3.08178579510687
H            4.18608008126762       -1.14603601639404       -4.00987925108239
H            5.37161811925836       -3.19762698036761       -4.65026804798471
H            7.79542333263222       -3.41239148323321       -4.29301039650554
H            9.08607524682797       -1.56876441373507       -3.29039834939590
N            7.80773839663652        0.87283096730124       -2.51031263608481
C            6.73665214230326        1.71627601135283       -2.35382248132323
H            8.77765497450400        1.07127238816441       -2.25852033982637
H            6.76919045597554        2.70826694559961       -1.93312823206229
