46
Energy = -1034.6987414
C    -0.2278959    2.8378466   -0.1861508 
C    -0.7988157    1.4207111   -0.4580511 
N     0.1784452    0.6160059   -1.2077230 
C     0.9563621    3.0630382   -1.1370941 
H     0.1258120    2.9362415    0.8458399 
H    -0.9932994    3.5993967   -0.3421379 
C     2.1147990    2.1296124   -0.7059010 
C     1.5046399    0.6862699   -0.6028292 
H     2.1541114   -0.0370432   -1.0967345 
H     1.4385091    0.4002603    0.4430373 
C     0.2509803    1.1411323   -2.5764201 
C     0.5489900    2.6680441   -2.5642043 
H     1.2863566    4.1007767   -1.0994180 
H    -0.6916388    0.9258637   -3.0806038 
H     1.0336766    0.5921153   -3.1028864 
H     1.3456435    2.9176678   -3.2682321 
H    -0.3323404    3.2401433   -2.8626626 
C     2.7460599    2.5389919    0.5374372 
H     2.8743616    2.1467909   -1.4932058 
C     3.2429457    2.8544536    1.5849318 
H     3.6948065    3.1429876    2.5020735 
C    -1.3046314    0.7099205    0.8104526 
H    -1.6736422    1.5115848   -1.1051119 
C    -1.9930293   -0.5887628    0.4650185 
O    -2.2616348    1.5445634    1.4699444 
H    -0.4676982    0.5267336    1.4890250 
H    -1.8181773    2.3534665    1.7469961 
C    -1.3622947   -1.8561863    0.5849775 
C    -3.2775067   -0.5498865   -0.0230075 
C    -3.9228031   -1.7374699   -0.4074041 
N    -3.3670610   -2.9244169   -0.3337018 
C    -2.1056905   -2.9985432    0.1576693 
H    -4.9370126   -1.6974732   -0.7936483 
H    -3.7985415    0.3941090   -0.1021956 
C    -0.0563158   -2.0483095    1.1036750 
C    -1.5054989   -4.2805122    0.2487554 
C    -0.2447339   -4.4360131    0.7421054 
C     0.4891039   -3.3064358    1.1796332 
H    -2.0890683   -5.1276258   -0.0857895 
H     0.2208033   -5.4098091    0.8169767 
H     0.5090857   -1.1982190    1.4426597 
O     1.7313619   -3.5842763    1.6599509 
C     2.5304378   -2.5043207    2.1104374 
H     3.4665725   -2.9421476    2.4484727 
H     2.0541416   -1.9767290    2.9425237 
H     2.7313246   -1.7945473    1.3025200 
