46
Energy = -1034.6988703
C     0.9655857    2.1912560    0.2696995 
C     0.4904060    0.7187972    0.1249231 
N     1.6445021   -0.1845498    0.0043116 
C     2.4619243    2.2475495   -0.0619050 
H     0.8188033    2.5599332    1.2901504 
H     0.4039743    2.8488831   -0.3956591 
C     3.2404118    1.4602550    1.0230433 
C     2.6075788    0.0211374    1.0799551 
H     3.3882124   -0.7349326    0.9933152 
H     2.1183597   -0.1295227    2.0393590 
C     2.2995713    0.0684362   -1.2829273 
C     2.7111100    1.5634610   -1.4130558 
H     2.8091937    3.2804365   -0.0811170 
H     1.6145659   -0.2238580   -2.0796687 
H     3.1709059   -0.5854807   -1.3475448 
H     3.7616914    1.6586168   -1.6961230 
H     2.1252433    2.0643443   -2.1870942 
C     3.2217979    2.1175982    2.3193469 
H     4.2825155    1.3823543    0.6990837 
C     3.1759783    2.6427785    3.3989822 
H     3.1516453    3.1106361    4.3524182 
C    -0.4667700    0.3008838    1.2564850 
H    -0.0655303    0.6113654   -0.8064392 
C    -0.9129627   -1.1342606    1.1293276 
O    -1.6094017    1.1663868    1.2689031 
H     0.0561625    0.3978520    2.2131199 
H    -1.3223533    2.0379803    1.5612755 
C    -1.7737548   -1.5995244    0.0954391 
C    -0.4058659   -2.0602564    2.0069149 
C    -0.7102317   -3.4252896    1.8581304 
N    -1.4713191   -3.8957596    0.8997068 
C    -2.0047470   -3.0065826    0.0239336 
H    -0.2992267   -4.1483968    2.5563947 
H     0.2474766   -1.7490369    2.8124313 
C    -2.4023727   -0.7511585   -0.8523461 
C    -2.8311526   -3.5132196   -1.0109848 
C    -3.4100764   -2.6800895   -1.9214085 
C    -3.1996340   -1.2823666   -1.8371816 
H    -2.9859052   -4.5831996   -1.0462444 
H    -4.0447443   -3.0564092   -2.7128361 
H    -2.2785857    0.3130661   -0.7545192 
O    -3.8477481   -0.5499745   -2.7832806 
C    -3.7019192    0.8592287   -2.7473932 
H    -4.2987067    1.2449583   -3.5705688 
H    -2.6566084    1.1531386   -2.8851668 
H    -4.0679993    1.2725348   -1.8031861 
