46
Energy = -1034.6981341
C    -0.0636328    3.0843963   -0.3011680 
C    -0.7176261    1.7065617   -0.5703050 
N     0.2084211    0.8300107   -1.3054255 
C     1.1439279    3.2224261   -1.2378746 
H     0.2609515    3.1665145    0.7380098 
H    -0.7814674    3.8866237   -0.4713979 
C     2.2345238    2.2171565   -0.7903011 
C     1.5331801    0.8159027   -0.6892463 
H     2.1376755    0.0523665   -1.1794253 
H     1.4427997    0.5305699    0.3547470 
C     0.3276677    1.3439063   -2.6752336 
C     0.7297799    2.8469097   -2.6684151 
H     1.5428760    4.2359427   -1.2026834 
H    -0.6236549    1.1913816   -3.1866517 
H     1.0750894    0.7396903   -3.1925725 
H     1.5498295    3.0352771   -3.3649653 
H    -0.1070247    3.4755869   -2.9811691 
C     2.8803683    2.5926847    0.4561957 
H     3.0021232    2.1808965   -1.5696007 
C     3.3913519    2.8850904    1.5034230 
H     3.8511221    3.1488836    2.4238466 
C    -1.2651914    1.0386805    0.6958565 
H    -1.5830805    1.8421888   -1.2230134 
C    -1.9585936   -0.2684223    0.3769906 
O    -2.1730307    1.9938687    1.2536414 
H    -0.4479284    0.8736748    1.4019027 
H    -2.5877132    1.5996827    2.0286970 
C    -1.3772406   -1.5427081    0.6415648 
C    -3.1965539   -0.2386279   -0.2150436 
C    -3.8468877   -1.4380895   -0.5663638 
N    -3.3387021   -2.6279848   -0.3610567 
C    -2.1208114   -2.6977290    0.2382805 
H    -4.8235248   -1.3996943   -1.0401278 
H    -3.6788112    0.7095275   -0.4127156 
C    -0.1328779   -1.7316653    1.2755046 
C    -1.5718346   -3.9765481    0.4718078 
C    -0.3539455   -4.1330986    1.0803582 
C     0.3733849   -2.9934100    1.4921922 
H    -2.1508679   -4.8330847    0.1535723 
H     0.0375994   -5.1260159    1.2445638 
H     0.4593024   -0.8951004    1.6117909 
O     1.5848193   -3.0590260    2.1117901 
C     2.1587986   -4.3318292    2.3577055 
H     3.1088578   -4.1396136    2.8506471 
H     2.3393575   -4.8770808    1.4266445 
H     1.5271938   -4.9366729    3.0150234 
