46
Energy = -1034.6975371
C     0.8209887    0.6866981   -2.2338235 
C     1.3527973    0.3279487   -0.8149185 
N     2.1589735    1.4411829   -0.2732817 
C     1.4025487    2.0409408   -2.6523524 
H    -0.2693107    0.7302393   -2.2680901 
H     1.1183477   -0.0710572   -2.9602410 
C     0.9232806    3.1314185   -1.6623984 
C     1.4227274    2.7063194   -0.2309304 
H     2.0981875    3.4668954    0.1616196 
H     0.5823555    2.6132852    0.4466403 
C     3.3396599    1.6147820   -1.1273738 
C     2.9332785    1.9731012   -2.5860778 
H     1.0719776    2.2951195   -3.6596293 
H     3.9223911    0.6927622   -1.0977395 
H     3.9551538    2.4015722   -0.6885423 
H     3.3640385    2.9295211   -2.8909509 
H     3.2961282    1.2209770   -3.2899864 
C    -0.5167414    3.3318741   -1.7234485 
H     1.4009191    4.0744778   -1.9441689 
C    -1.7091580    3.4738589   -1.7708111 
H    -2.7604016    3.6219778   -1.8108772 
C     0.2897071   -0.1339491    0.1930428 
H     2.0546506   -0.5041342   -0.8984057 
C    -0.2504759   -1.5358349   -0.0398356 
O    -0.7846379    0.7973866    0.3539420 
H     0.7905608   -0.1270391    1.1640412 
H    -1.2356284    0.9269906   -0.4893638 
C    -1.0749048   -2.1403483    0.9572137 
C     0.0302476   -2.2782451   -1.1618105 
C    -0.4911720   -3.5792352   -1.3062652 
N    -1.2447038   -4.1654466   -0.4092722 
C    -1.5368126   -3.4685272    0.7186528 
H    -0.2654448   -4.1485408   -2.2032470 
H     0.6541418   -1.8897724   -1.9521115 
C    -1.4347506   -1.4936318    2.1659936 
C    -2.3352551   -4.1045267    1.7024725 
C    -2.6628320   -3.4658336    2.8611919 
C    -2.2095560   -2.1446523    3.0965353 
H    -2.6709981   -5.1122581    1.4980508 
H    -3.2714153   -3.9408952    3.6192594 
H    -1.1238202   -0.4757922    2.3263201 
O    -2.6084519   -1.6081907    4.2790088 
C    -2.2032500   -0.2820043    4.5804238 
H    -2.6307497   -0.0516601    5.5532525 
H    -2.5793261    0.4258562    3.8365869 
H    -1.1132645   -0.2036103    4.6317054 
