24
Energy =
C    -0.2787561    2.1354982   -0.7654425 
C    -0.1121313    2.4617287    0.5376780 
C     0.6957358    1.7113957    1.3267200 
C     0.3732453    1.0621307   -1.2737840 
C     1.1752254    0.2970022   -0.4960170 
C     1.3457444    0.6332049    0.8120121 
O    -0.7759191    3.5624653    1.0696500 
H    -0.2171927    4.4024410    0.9657588 
H     1.9996583    0.0469673    1.4524900 
H     0.2916499    0.6721423   -2.3829144 
H    -0.9350863    2.7311643   -1.3900254 
H     0.8170072    1.9813571    2.3705725 
C     1.9278468   -0.8680924   -1.1228929 
C     1.0850667   -1.7121547   -2.1236219 
H     2.2920575   -1.5497712   -0.3212222 
H     2.8295983   -0.4739660   -1.6415283 
C     0.7267458   -0.9724863   -3.4317468 
O     0.2071086    0.3217283   -3.4222372 
O     0.8264002   -1.6219883   -4.6506310 
H     0.5232844   -0.9893182   -5.3806703 
N     1.8126796   -2.9699026   -2.3737061 
H     0.1062033   -1.9521371   -1.6464699 
H     1.2452689   -3.5668702   -3.0248374 
H     2.6897441   -2.7514982   -2.9049010 
