24
Energy =
C    -0.2187957    1.3070753    1.1704958 
C    -0.2259543    2.4861936    0.4930317 
C     0.4471733    2.5898962   -0.6751350 
C     0.4632394    0.2416133    0.6788975 
C     1.1510304    0.3480507   -0.4915843 
C     1.1328186    1.5289710   -1.1703072 
O    -0.9155476    3.6036768    0.9737219 
H    -1.4080470    3.4423016    1.8455097 
H     1.6573536    1.6303009   -2.1181584 
H     0.4530979   -0.6965428    1.2285250 
H    -0.7607699    1.2130577    2.1054783 
H     0.4252064    3.5323729   -1.2116897 
C     1.8932857   -0.8483882   -1.0497136 
C     0.9908457   -1.7292892   -1.9309274 
H     2.2940670   -1.4624652   -0.2127858 
H     2.7809836   -0.5222173   -1.6370524 
C     0.5383913   -0.9950557   -3.1912526 
O    -0.7734526   -1.1074423   -3.6261987 
O     1.4362514   -0.2453301   -3.9429436 
H     1.9808830   -0.8720029   -4.5164698 
N     1.7256802   -2.9801438   -2.2184609 
H     0.0580249   -1.9604212   -1.3618555 
H     1.1591058   -3.7986243   -1.8906773 
H     1.8650427   -3.1226085   -3.2474176 
