24
Energy =
C     0.3352646    2.2263534    0.2954232 
C    -0.4719740    2.6176086   -0.7165980 
C    -0.4835578    1.9109526   -1.8781366 
C     1.1337895    1.1380031    0.1566375 
C     1.1330222    0.4321533   -1.0068576 
C     0.3125874    0.8204053   -2.0220421 
O    -1.2796563    3.7453162   -0.5369691 
H    -1.8590342    3.9746604   -1.3366865 
H     0.2876473    0.2608911   -2.9534693 
H     1.7657124    0.8303250    0.9860974 
H     0.3308321    2.7927251    1.2204667 
H    -1.1322197    2.2166773   -2.6914469 
C     2.0061403   -0.7944627   -1.1554120 
C     1.2762988   -2.0690315   -0.6858611 
H     2.9466019   -0.6692273   -0.5713823 
H     2.3252698   -0.9003040   -2.2162597 
C     2.0294091   -3.3196238   -1.1147801 
O     3.3230224   -3.5477918   -0.6687459 
O     1.4360803   -4.2360855   -1.9706527 
H     1.4552986   -3.8750827   -2.9123521 
N     1.0887223   -2.0097629    0.7760436 
H     0.2787749   -2.1231202   -1.1823856 
H     0.5395768   -2.8482973    1.0854949 
H     2.0221513   -2.0922667    1.2481625 
