24
Energy =
C    -0.2044276    2.4574301   -1.4357849 
C    -0.5981679    2.6082845   -0.1505688 
C    -0.1602235    1.7476991    0.7967768 
C     0.6388129    1.4511571   -1.7770567 
C     1.0942559    0.5855106   -0.8273199 
C     0.6856991    0.7396167    0.4639489 
O    -1.4598862    3.6445575    0.1958427 
H    -0.9391008    4.4846769    0.4212396 
H     1.0224638    0.0522422    1.2366170 
H     0.9398575    1.3395150   -2.8153878 
H    -0.5758475    3.1437686   -2.1882441 
H    -0.4980886    1.8673409    1.8209298 
C     2.0290170   -0.5472554   -1.2066440 
C     1.2957017   -1.8832921   -1.4680460 
H     2.7889979   -0.6789878   -0.4054450 
H     2.5985880   -0.2721829   -2.1229398 
C     0.5404686   -2.3931221   -0.2384493 
O    -0.8477396   -2.4115679   -0.2279817 
O     1.2211941   -2.8430277    0.8930808 
H     2.2224994   -2.7991709    0.7862388 
N     0.4436202   -1.7486036   -2.6654069 
H     2.0670520   -2.6596336   -1.6756727 
H     0.0057187   -2.6769954   -2.8811781 
H    -0.3659442   -1.1189118   -2.4443424 
