24
Energy =
C    -0.1228238    2.3135770   -0.2061671 
C    -0.0502380    2.0101316    1.1194423 
C     0.6540520    0.9269875    1.5194496 
C     0.5178784    1.5292105   -1.1247630 
C     1.2296843    0.4464430   -0.7129981 
C     1.2884152    0.1439765    0.6113993 
O    -0.6918245    2.7899502    2.0873292 
H    -1.2062701    3.5878172    1.7316002 
H     1.8427524   -0.7266418    0.9543537 
H     0.4594704    1.7351250   -2.2212961 
H    -0.7040499    3.1828728   -0.5090538 
H     0.7024365    0.6899420    2.5774878 
C     1.9176921   -0.4262523   -1.7390931 
C     0.9157261   -1.3672223   -2.4719819 
H     2.7324686   -1.0222399   -1.2664519 
H     2.4567331    0.2251365   -2.4710758 
C     0.9316210   -1.1361325   -3.9946676 
O     1.0735223   -2.2133089   -4.8752656 
O     0.7454982    0.1697072   -4.5056421 
H     0.6267255    0.9242098   -3.8131861 
N     1.2207252   -2.7616225   -2.0934348 
H    -0.1341903   -1.1285870   -2.1814537 
H     0.9752297   -2.9056804   -1.0849885 
H     0.6104631   -3.4228302   -2.6343893 
