24
Energy =
C     0.4117927    2.0061375   -2.3263401 
C     0.5066814    2.8971653   -1.3128827 
C     1.0200253    2.5146943   -0.1212609 
C     0.8225616    0.7248173   -2.1487502 
C     1.3343341    0.3294546   -0.9491905 
C     1.4328708    1.2349818    0.0646129 
O     0.0851143    4.2099796   -1.4987444 
H    -0.8983688    4.3059366   -1.2703792 
H     1.8424366    0.9450449    1.0288092 
H     0.7404047    0.0201045   -2.9726118 
H     0.0084599    2.3299836   -3.2795874 
H     1.1001398    3.2418787    0.6800394 
C     1.7862364   -1.1019754   -0.7513738 
C     0.5936847   -2.0829740   -0.6302249 
H     2.4338923   -1.2030257    0.1492487 
H     2.4266400   -1.3909315   -1.6159502 
C     1.0853130   -3.5170280   -0.7553594 
O     0.8368008   -4.2399304   -1.9157925 
O     1.8458486   -4.0911415    0.2562256 
H     2.0846415   -5.0380345   -0.0103531 
N    -0.1830514   -1.8471479    0.6124350 
H    -0.0901859   -1.9381196   -1.4977358 
H    -0.1694948   -2.6934653    1.2331230 
H     0.2149257   -1.0733531    1.1918789 
