24
Energy =
C    -0.3158976    2.1122203   -1.8449677 
C    -0.7414477    2.5245508   -0.6209548 
C    -0.2474027    1.9357530    0.4918054 
C     0.6000695    1.1162321   -1.9488908 
C     1.1026055    0.5271208   -0.8289101 
C     0.6690261    0.9395912    0.3940598 
O    -1.6852545    3.5465739   -0.4784663 
H    -2.0048423    3.9394139   -1.3573304 
H     1.0470006    0.4716770    1.3001022 
H     0.9279971    0.7941832   -2.9344614 
H    -0.7083526    2.5766601   -2.7432543 
H    -0.5981312    2.2715167    1.4617234 
C     2.1092033   -0.5960932   -0.9465182 
C     1.4359704   -1.9573600   -1.2150237 
H     2.7226542   -0.6787717   -0.0201994 
H     2.8255325   -0.3606494   -1.7655988 
C     2.4697006   -3.0158868   -1.5748483 
O     2.0753167   -4.1555826   -2.2656788 
O     3.8039071   -2.8739996   -1.2073569 
H     4.3141281   -3.6937204   -1.5109967 
N     0.6519017   -2.3536847   -0.0311152 
H     0.7684233   -1.8717668   -2.1042091 
H    -0.2243800   -1.7819080    0.0017534 
H     0.3305002   -3.3458530   -0.1484939 
