24
Energy =
C    -0.4575756    2.0170175    0.5115754 
C     0.5963678    2.8511172    0.3720495 
C     1.8078671    2.3476914    0.0191422 
C    -0.3132847    0.6832946    0.2993417 
C     0.8930751    0.1712335   -0.0693542 
C     1.9572938    1.0157667   -0.1954459 
O     0.4078508    4.2172448    0.6020041 
H     1.2413269    4.7798548    0.4723153 
H     2.9357384    0.6313002   -0.4735451 
H    -1.1709035    0.0319177    0.4336990 
H    -1.4186748    2.4322212    0.7982046 
H     2.6595456    3.0100897   -0.0896467 
C     1.0734250   -1.3230618   -0.2971073 
C     0.6602944   -1.8640991   -1.7025945 
H     0.5118367   -1.8790718    0.4871115 
H     2.1406340   -1.5890682   -0.1293419 
C    -0.8216546   -2.2110827   -1.8336812 
O    -1.2058500   -3.2651154   -2.6533650 
O    -1.8062415   -1.4926426   -1.1669313 
H    -2.7123304   -1.8678997   -1.4239101 
N     1.1757919   -1.0435718   -2.8265349 
H     1.1427530   -2.8638835   -1.7957623 
H     0.3968175   -0.7631560   -3.4707020 
H     1.6238609   -0.1541854   -2.5207230 
