24
Energy = -629.7739115
C     0.0405859    2.1310217    1.5088499 
C    -1.2057083    2.4222428    0.9644380 
C    -1.9379736    1.4151338    0.3397919 
C     0.5421133    0.8398429    1.4177732 
C    -0.1720617   -0.1830000    0.7901377 
C    -1.4236779    0.1291969    0.2555737 
O    -1.6626766    3.7036578    1.0762709 
H    -2.5319604    3.7743270    0.6657842 
H    -2.0016565   -0.6437016   -0.2338384 
H     1.5075846    0.6202245    1.8596959 
H     0.5968299    2.9161219    2.0032801 
H    -2.9136058    1.6357221   -0.0797619 
C     0.4130576   -1.5644694    0.6521424 
C     1.0618613   -1.8064134   -0.7259242 
H    -0.3556164   -2.3244613    0.7922833 
H     1.1754469   -1.7185287    1.4187430 
C    -0.0090967   -1.9598843   -1.8251026 
O    -1.0231450   -2.5875139   -1.6704134 
O     0.3088587   -1.3627279   -2.9757999 
H     1.1751970   -0.9244580   -2.8030255 
N     2.0471950   -0.8008489   -1.1375334 
H     1.5656644   -2.7767874   -0.6986055 
H     2.9841527   -1.0432208   -0.8462191 
H     1.8186317    0.1085242   -0.7485405 
