24
Energy = -629.7621101
C     0.3187072    1.0823910    2.3814220 
C    -0.6783953    1.9730798    1.9962479 
C    -1.4797490    1.6785874    0.8963362 
C     0.5082215   -0.0866244    1.6601466 
C    -0.2778499   -0.3976535    0.5499829 
C    -1.2762817    0.5045321    0.1857912 
O    -0.8304354    3.1114345    2.7342478 
H    -1.5366120    3.6489546    2.3581527 
H    -1.9047352    0.2961965   -0.6715307 
H     1.2813484   -0.7770521    1.9765693 
H     0.9302193    1.3162754    3.2424794 
H    -2.2602309    2.3677465    0.5931793 
C    -0.0247777   -1.6418704   -0.2544705 
C     0.8895743   -1.4239753   -1.5006321 
H    -0.9725809   -2.0839479   -0.5769436 
H     0.4677187   -2.3939944    0.3667532 
C     0.2087016   -0.4738701   -2.4792263 
O     0.5337453    0.6639779   -2.6540203 
O    -0.8646202   -0.9841842   -3.1361167 
H    -0.9735434   -1.9215101   -2.9285047 
N     2.2145269   -0.9201443   -1.2115478 
H     0.9778905   -2.3996392   -1.9982546 
H     2.2056664    0.0936276   -1.2224030 
H     2.5434914   -1.2323373   -0.3076581 
