24
Energy = -629.7725004
C     0.3360026    2.5378849    0.9797859 
C    -1.0395025    2.7185620    1.1189970 
C    -1.8880668    1.6188944    1.0590928 
C     0.8453607    1.2666371    0.7786447 
C     0.0108780    0.1470198    0.7114626 
C    -1.3592830    0.3477099    0.8574166 
O    -1.4902572    3.9913803    1.3155906 
H    -2.4492218    3.9862422    1.4129202 
H    -2.0302206   -0.5030236    0.8259899 
H     1.9169574    1.1385277    0.6785295 
H     0.9866764    3.4001498    1.0382912 
H    -2.9582364    1.7503868    1.1758233 
C     0.5778016   -1.2225253    0.4503364 
C     1.0161615   -1.4133009   -1.0159531 
H    -0.1659673   -1.9856945    0.6929754 
H     1.4506437   -1.4094543    1.0766513 
C     1.6321051   -2.8124601   -1.1481889 
O     2.7225562   -3.0874574   -0.7274586 
O     0.8255242   -3.7079967   -1.7337981 
H     0.0243353   -3.2010995   -1.9973162 
N    -0.1308630   -1.2838373   -1.9190894 
H     1.8132511   -0.6969922   -1.2334225 
H    -0.8011612   -0.6138113   -1.5598685 
H     0.1545262   -0.9657419   -2.8374121 
