24
Energy = -629.7698046
C     0.0692090    2.4066399    1.3710811 
C    -1.2362297    2.7480629    1.0289479 
C    -2.0843026    1.7819972    0.4957247 
C     0.5163717    1.1057420    1.1771056 
C    -0.3161632    0.1240411    0.6427590 
C    -1.6224173    0.4874479    0.3093398 
O    -1.7368390    4.0085249    1.1980581 
H    -1.0585317    4.5767864    1.5798525 
H    -2.2852971   -0.2572715   -0.1125329 
H     1.5334986    0.8518307    1.4531231 
H     0.7326260    3.1533037    1.7943761 
H    -3.0986745    2.0571312    0.2390910 
C     0.1970801   -1.2694847    0.3942031 
C     0.8647213   -1.3921318   -0.9925174 
H    -0.6251153   -1.9862068    0.4345335 
H     0.9218564   -1.5440248    1.1602349 
C     1.4663253   -2.7652401   -1.2234413 
O     1.3476956   -3.4147443   -2.2296634 
O     2.2130176   -3.1810306   -0.1755934 
H     2.5876379   -4.0411368   -0.4222384 
N    -0.0920225   -1.1168827   -2.0489974 
H     1.7310520   -0.7091790   -0.9963546 
H    -0.2498856   -0.1232570   -2.1467900 
H     0.2243870   -1.5009178   -2.9303014 
