24
Energy = -629.7699224
C     0.1471950    2.5332593    1.1701664 
C    -1.1178452    2.8940797    0.7142469 
C    -1.9756635    1.9179344    0.2167844 
C     0.5391859    1.2043873    1.1231770 
C    -0.3050493    0.2085611    0.6269320 
C    -1.5672914    0.5899447    0.1774078 
O    -1.4629082    4.2147635    0.7827659 
H    -2.3594577    4.3314730    0.4489041 
H    -2.2380699   -0.1613725   -0.2193566 
H     1.5241886    0.9338849    1.4865249 
H     0.8035330    3.2989251    1.5618606 
H    -2.9643437    2.1929843   -0.1349509 
C     0.1578093   -1.2215452    0.5411573 
C     0.9301692   -1.4921270   -0.7679519 
H    -0.6991576   -1.8968708    0.5702628 
H     0.8028105   -1.4583605    1.3870043 
C     1.4746092   -2.9061469   -0.8341727 
O     1.4030579   -3.6332881   -1.7905650 
O     2.1104511   -3.2645847    0.3038913 
H     2.4581805   -4.1588404    0.1612740 
N     0.0788599   -1.2638261   -1.9217926 
H     1.8285865   -0.8523906   -0.7526780 
H    -0.0154958   -0.2756126   -2.1124493 
H     0.4466456   -1.7352319   -2.7384427 
