24
Energy = -629.7663362
C    -0.4355125    2.1349087    1.5591612 
C    -1.3161397    2.6486892    0.6115213 
C    -1.7982186    1.8220599   -0.4011404 
C    -0.0456278    0.8063082    1.4872595 
C    -0.5162839   -0.0421568    0.4823203 
C    -1.4002387    0.4930458   -0.4571872 
O    -1.6704375    3.9600739    0.7233285 
H    -2.2807275    4.1963919    0.0155679 
H    -1.7941199   -0.1404530   -1.2435478 
H     0.6472932    0.4202353    2.2247941 
H    -0.0649630    2.7851575    2.3399870 
H    -2.4891746    2.2140239   -1.1393462 
C    -0.0867964   -1.4847147    0.3993150 
C     0.8084210   -1.8338631   -0.8122533 
H    -0.9604675   -2.1338825    0.3178717 
H     0.4366091   -1.7695519    1.3155953 
C     2.1871857   -1.1569281   -0.7112371 
O     3.2126419   -1.7650529   -0.5793172 
O     2.2023329    0.1919897   -0.7999010 
H     1.2994136    0.5462361   -0.7832777 
N     0.8923564   -3.2762855   -0.9460068 
H     0.3233695   -1.4412183   -1.7123082 
H     1.4666172   -3.5144343   -1.7473365 
H     1.3824671   -3.6605790   -0.1438625 
