24
Energy = -629.7679261
C     0.7501634    2.8043050    0.1235624 
C    -0.5467614    3.1762805    0.4640033 
C    -1.4681330    2.2028597    0.8389917 
C     1.1101336    1.4657803    0.1614149 
C     0.2015925    0.4739651    0.5337865 
C    -1.0914216    0.8664995    0.8695423 
O    -0.8584184    4.5067315    0.4170089 
H    -1.7799028    4.6299614    0.6708670 
H    -1.8201804    0.1174070    1.1494135 
H     2.1236545    1.1862457   -0.1030956 
H     1.4603878    3.5690334   -0.1612187 
H    -2.4802627    2.4884743    1.1052272 
C     0.6095999   -0.9733541    0.5279770 
C     0.3259745   -1.6686645   -0.8251260 
H     0.0841167   -1.5271256    1.3103684 
H     1.6779049   -1.0545135    0.7400644 
C     1.1192702   -2.9682075   -0.8707552 
O     2.2054480   -3.1020061   -1.3715885 
O     0.4813395   -3.9851627   -0.2385544 
H     1.0678001   -4.7566647   -0.2810969 
N    -1.1062397   -1.8056324   -1.0387109 
H     0.7375369   -1.0457911   -1.6198141 
H    -1.3093167   -2.0963596   -1.9871097 
H    -1.4942857   -2.5040619   -0.4151574 
