24
Energy = -629.7671499
C    -0.0739815    2.1328430    1.4154454 
C    -1.2836938    2.6078008    0.9193314 
C    -2.1299573    1.7479681    0.2240593 
C     0.2845406    0.8061754    1.2113259 
C    -0.5460482   -0.0689357    0.5161774 
C    -1.7566335    0.4282302    0.0293397 
O    -1.6945047    3.8997358    1.0880892 
H    -1.0199392    4.3929113    1.5682608 
H    -2.4244244   -0.2317910   -0.5126140 
H     1.2306515    0.4480883    1.5989995 
H     0.5870438    2.7973402    1.9613717 
H    -3.0699515    2.1273255   -0.1537200 
C    -0.1293824   -1.4898460    0.2478777 
C     0.4894388   -1.7050527   -1.1555729 
H    -0.9928802   -2.1571356    0.3181419 
H     0.5954229   -1.8199030    0.9949920 
C     1.6868294   -0.7938923   -1.3611677 
O     1.7506054    0.1276034   -2.1265720 
O     2.7157289   -1.1378621   -0.5437649 
H     3.4472817   -0.5327243   -0.7417775 
N     0.9002502   -3.0786525   -1.4363969 
H    -0.2343456   -1.4033859   -1.9127204 
H     1.5685324   -3.3983203   -0.7442817 
H     0.0994168   -3.6985205   -1.4048239 
