24
Energy = -629.7683861
C     0.3069844    2.2176034    1.1744685 
C    -1.0702541    2.3746890    1.0550662 
C    -1.8731385    1.2620882    0.8189145 
C     0.8665635    0.9544328    1.0507370 
C     0.0818320   -0.1742263    0.8055364 
C    -1.2971019    0.0047559    0.6969317 
O    -1.5783237    3.6360143    1.1867436 
H    -2.5372346    3.6093778    1.0936608 
H    -1.9324029   -0.8529429    0.5124811 
H     1.9388162    0.8434016    1.1593074 
H     0.9206824    3.0866316    1.3706781 
H    -2.9486443    1.3772117    0.7363418 
C     0.7009841   -1.5298379    0.6099987 
C     1.0993428   -1.8275366   -0.8683446 
H     0.0158026   -2.3129925    0.9384579 
H     1.6112457   -1.6200006    1.2077106 
C    -0.1692889   -1.8555504   -1.7023234 
O    -1.0290302   -2.6916384   -1.5812852 
O    -0.2773410   -0.8206956   -2.5570631 
H    -1.1384127   -0.9075966   -2.9955903 
N     2.1108631   -0.9584966   -1.4430016 
H     1.4780310   -2.8521873   -0.8919745 
H     1.7768801   -0.0044501   -1.5116208 
H     2.9431449   -0.9580545   -0.8658306 
