24
Energy = -629.7617189
C    -0.2824958    1.9261221    1.7195499 
C    -1.5938399    2.0419924    1.2695324 
C    -2.1601666    1.0134426    0.5208540 
C     0.4537107    0.7879552    1.4140897 
C    -0.0919054   -0.2487889    0.6614905 
C    -1.4120847   -0.1134715    0.2250252 
O    -2.3718652    3.1313879    1.5368421 
H    -1.8666065    3.7734280    2.0481303 
H    -1.8654145   -0.9015762   -0.3639792 
H     1.4697277    0.7067092    1.7822149 
H     0.1615698    2.7193944    2.3109732 
H    -3.1811074    1.1130749    0.1779484 
C     0.7270932   -1.4546195    0.2946967 
C     1.4098523   -1.3663610   -1.1056606 
H     0.1099267   -2.3574250    0.3373297 
H     1.5283230   -1.5977504    1.0239301 
C     0.3470961   -1.2804688   -2.1955930 
O     0.0885862   -0.2871517   -2.8097848 
O    -0.3574112   -2.4201277   -2.4144262 
H    -0.0048199   -3.1436519   -1.8799033 
N     2.3326352   -0.2642547   -1.2708510 
H     1.9507366   -2.3119691   -1.2495721 
H     1.8397237    0.5423041   -1.6376537 
H     2.7687361   -0.0081947   -0.3951832 
