24
Energy = -629.7624712
C     0.1547731    2.1684622    1.7924590 
C    -1.0253484    2.7091712    1.2923910 
C    -1.8403116    1.9406006    0.4652704 
C     0.5061126    0.8689035    1.4578789 
C    -0.2944434    0.0829072    0.6281647 
C    -1.4739081    0.6419620    0.1391323 
O    -1.3362102    3.9912935    1.6479337 
H    -2.1735629    4.2441241    1.2431713 
H    -2.1043976    0.0595505   -0.5180924 
H     1.4230803    0.4548356    1.8628868 
H     0.7772275    2.7697036    2.4415092 
H    -2.7626541    2.3577792    0.0753445 
C     0.1344621   -1.3081311    0.2497754 
C     0.7781452   -1.3821786   -1.1593716 
H    -0.7153889   -1.9952805    0.2536942 
H     0.8407437   -1.6825385    0.9945659 
C     1.5436401   -2.7056279   -1.2759711 
O     1.1178483   -3.6763215   -1.8340045 
O     2.7530520   -2.7494830   -0.6597896 
H     2.9697358   -1.8885089   -0.2782748 
N    -0.2341883   -1.2234327   -2.1859122 
H     1.4900057   -0.5554102   -1.2500169 
H     0.1942326   -1.0157244   -3.0802576 
H    -0.7226455   -2.1066558   -2.3024867 
