24
Energy = -629.7668416
C     0.9050527    2.6291267    0.0922973 
C    -0.4049130    3.0951440    0.1555935 
C    -1.4548570    2.2493231   -0.1879823 
C     1.1474894    1.3254837   -0.3122329 
C     0.1087006    0.4588363   -0.6589399 
C    -1.1947031    0.9447518   -0.5891224 
O    -0.5995692    4.3875776    0.5569406 
H    -1.5426854    4.5860019    0.5532796 
H    -2.0180324    0.2888825   -0.8372325 
H     2.1728780    0.9766214   -0.3666931 
H     1.7152414    3.2963678    0.3545771 
H    -2.4775533    2.6083337   -0.1415204 
C     0.4017892   -0.9613409   -1.0713373 
C     0.6270701   -1.9058530    0.1119091 
H     1.3125488   -0.9792709   -1.6768516 
H    -0.4023569   -1.3624286   -1.6876072 
C    -0.6762457   -2.2379039    0.8257622 
O    -1.7899089   -2.0070263    0.4409517 
O    -0.4278340   -2.8839023    1.9914810 
H    -1.2867274   -3.1122662    2.3809043 
N     1.1806465   -3.1834343   -0.3549217 
H     1.2699756   -1.4027465    0.8481204 
H     2.0453946   -3.0206147   -0.8573066 
H     1.3885994   -3.7896627    0.4299310 
