24
Energy = -629.7719546
C    -0.2720669    1.8294440    1.8823407 
C    -1.4898876    2.1168825    1.2733336 
C    -2.0587670    1.1944363    0.3999583 
C     0.3657974    0.6285597    1.6101905 
C    -0.1830859   -0.3077842    0.7309395 
C    -1.4068532   -0.0029787    0.1370581 
O    -2.0827878    3.3104716    1.5732595 
H    -2.9099161    3.3918228    1.0853443 
H    -1.8625732   -0.7137416   -0.5415190 
H     1.3132350    0.4123380    2.0884438 
H     0.1569688    2.5495139    2.5662953 
H    -3.0116054    1.4100096   -0.0714549 
C     0.5422656   -1.5874894    0.4060551 
C     1.4842372   -1.4652262   -0.8148381 
H    -0.1715885   -2.3886486    0.2148318 
H     1.1645588   -1.8879054    1.2494989 
C     0.6916931   -1.1923988   -2.0920507 
O     0.8155400   -0.2304047   -2.8020379 
O    -0.1843559   -2.1908015   -2.3681325 
H    -0.6307935   -1.9540775   -3.1964069 
N     2.5242675   -0.4886511   -0.5640534 
H     1.9531671   -2.4442464   -0.9554297 
H     3.1428538   -0.4194954   -1.3637395 
H     2.1096969    0.4303711   -0.4478868 
