24
Energy = -629.7681406
C    -0.1245239    2.0201928    1.7652512 
C    -1.2328671    2.6247731    1.1801573 
C    -1.9897443    1.9237344    0.2454532 
C     0.2192467    0.7263842    1.4093185 
C    -0.5238607    0.0076783    0.4734504 
C    -1.6316222    0.6272843   -0.0985905 
O    -1.5345281    3.9007141    1.5631039 
H    -2.3046794    4.2114031    1.0741393 
H    -2.2313165    0.0911887   -0.8256007 
H     1.0921199    0.2710790    1.8609128 
H     0.4579254    2.5756441    2.4877494 
H    -2.8576598    2.3885654   -0.2095529 
C    -0.1292030   -1.3860071    0.0702522 
C     0.7328995   -1.4708946   -1.2091496 
H    -1.0291243   -1.9810639   -0.1148071 
H     0.4143540   -1.8765725    0.8815632 
C     2.0667802   -0.7473303   -0.9859352 
O     2.2197380    0.4300163   -1.1504333 
O     3.0474662   -1.5526013   -0.5399441 
H     2.6864905   -2.4637248   -0.5923640 
N     0.9987272   -2.8841309   -1.5035490 
H     0.2181556   -0.9427507   -2.0158255 
H     1.2359682   -3.0271118   -2.4780718 
H     0.1992580   -3.4664699   -1.2875276 
