24
Energy = -629.7705301
C     0.0146444    2.3347640    1.4983106 
C    -1.1284790    2.8337040    0.8769733 
C    -1.9088288    1.9919566    0.0918557 
C     0.3650121    1.0061064    1.3262203 
C    -0.4031489    0.1420847    0.5410079 
C    -1.5429074    0.6598145   -0.0694733 
O    -1.4331371    4.1493606    1.0789574 
H    -2.2413246    4.3719435    0.6032739 
H    -2.1634057    0.0121980   -0.6772475 
H     1.2550918    0.6291185    1.8167395 
H     0.6103706    2.9973369    2.1118372 
H    -2.8038399    2.3720745   -0.3886306 
C     0.0220161   -1.2824488    0.3226240 
C     1.1305602   -1.3956288   -0.7684480 
H    -0.8307973   -1.8869806    0.0047982 
H     0.4032340   -1.7102198    1.2529219 
C     1.4971663   -2.8583042   -0.8915778 
O     1.0248854   -3.6238667   -1.6912157 
O     2.3830440   -3.2408762    0.0543343 
H     2.5194228   -4.1957783   -0.0526670 
N     0.7686389   -0.8951149   -2.0799678 
H     2.0083761   -0.8547243   -0.4078038 
H     0.1570254   -1.5538959   -2.5488676 
H     0.2963806   -0.0026238   -2.0039551 
