24
Energy = -629.7691048
C    -0.1300498    2.1380644    1.4369255 
C    -1.2967883    2.6285290    0.8602128 
C    -2.1128063    1.7757355    0.1211385 
C     0.2165185    0.8024312    1.2696801 
C    -0.5842271   -0.0657193    0.5327053 
C    -1.7524177    0.4474683   -0.0352987 
O    -1.6937657    3.9295472    0.9889043 
H    -1.0459629    4.4142794    1.5125437 
H    -2.3970300   -0.2076733   -0.6100567 
H     1.1289685    0.4315150    1.7199337 
H     0.5067054    2.7967729    2.0177304 
H    -3.0202344    2.1670023   -0.3190061 
C    -0.1907332   -1.5036227    0.3166149 
C     0.4394871   -1.7560175   -1.0605044 
H    -1.0605573   -2.1593404    0.3866629 
H     0.5148760   -1.8187915    1.0880209 
C     1.6574778   -0.8728090   -1.3011542 
O     1.8203815   -0.1454879   -2.2448759 
O     2.6047268   -1.0364997   -0.3403100 
H     3.3557724   -0.4754965   -0.5888219 
N     0.7511861   -3.1764858   -1.2125345 
H    -0.2743292   -1.4809984   -1.8373955 
H     1.0915252   -3.3770179   -2.1458907 
H     1.4712767   -3.4553853   -0.5552242 
