24
Energy = -629.7671660
C    -0.0760543    2.0313365    1.6071956 
C    -1.1832695    2.6137646    0.9988046 
C    -1.9771420    1.8569768    0.1411019 
C     0.2293726    0.7035510    1.3498173 
C    -0.5506670   -0.0722639    0.4915910 
C    -1.6570975    0.5289621   -0.1050815 
O    -1.4467237    3.9240186    1.2820920 
H    -2.2229424    4.2115461    0.7885202 
H    -2.2849225   -0.0478677   -0.7745289 
H     1.0961942    0.2594568    1.8243040 
H     0.5315675    2.6275823    2.2746927 
H    -2.8441932    2.3049330   -0.3322276 
C    -0.1772042   -1.4954606    0.1750671 
C     0.5688369   -1.6605697   -1.1719464 
H    -1.0729553   -2.1205942    0.1196441 
H     0.4534523   -1.9046216    0.9670049 
C     1.8053884   -0.7798872   -1.2135367 
O     1.9684445    0.1739256   -1.9226418 
O     2.7378901   -1.1943686   -0.3179393 
H     3.4994150   -0.6004836   -0.4077705 
N     0.9650940   -3.0313552   -1.4854819 
H    -0.0686130   -1.2969299   -1.9778870 
H     1.5582712   -3.4056684   -0.7534170 
H     0.1478582   -3.6259827   -1.5573770 
