24
Energy = -629.7665738
C     0.5822696    1.9866187    1.4804357 
C    -0.7320780    2.4377732    1.3998150 
C    -1.7411253    1.5585067    1.0214936 
C     0.8754225    0.6656975    1.1812327 
C    -0.1220503   -0.2345134    0.7999325 
C    -1.4315958    0.2362338    0.7263449 
O    -0.9733243    3.7490969    1.7057754 
H    -1.9156813    3.9300963    1.6167008 
H    -2.2225673   -0.4378368    0.4234126 
H     1.9013786    0.3278129    1.2334691 
H     1.3586514    2.6795837    1.7762949 
H    -2.7679477    1.9031626    0.9597231 
C     0.1978176   -1.6639846    0.4508656 
C     0.7437004   -1.8623405   -0.9827248 
H    -0.6940513   -2.2813802    0.5569860 
H     0.9508389   -2.0634093    1.1352815 
C    -0.2679096   -1.3417800   -1.9886764 
O    -1.4335169   -1.6428199   -1.9809749 
O     0.2657570   -0.5339936   -2.9291002 
H    -0.4593936   -0.2741756   -3.5191410 
N     2.0556056   -1.2473803   -1.1269684 
H     0.7555954   -2.9479391   -1.1690818 
H     2.7615427   -1.8133797   -0.6735380 
H     2.3126618   -1.1296492   -2.0975579 
