24
Energy = -629.7689071
C     0.4931905    2.3435068    1.4317888 
C    -0.8225926    2.7803735    1.2962120 
C    -1.8008561    1.8941295    0.8573948 
C     0.8210154    1.0297862    1.1268116 
C    -0.1437932    0.1251541    0.6847636 
C    -1.4557822    0.5838475    0.5574150 
O    -1.2075870    4.0588228    1.5830213 
H    -0.4446771    4.5689849    1.8773858 
H    -2.2269700   -0.1000953    0.2236694 
H     1.8482890    0.7030155    1.2393840 
H     1.2588065    3.0283856    1.7799829 
H    -2.8210428    2.2412500    0.7624384 
C     0.2358044   -1.2781047    0.3042990 
C     0.8252587   -1.3447759   -1.1360000 
H    -0.6377664   -1.9327701    0.3506489 
H     0.9802207   -1.6719311    1.0006933 
C     1.2966771   -2.7633936   -1.3783861 
O     2.3958923   -3.1778822   -1.1203292 
O     0.3114286   -3.5589513   -1.8573769 
H     0.6851937   -4.4492623   -1.9495696 
N    -0.0597952   -0.8970367   -2.1997493 
H     1.7246430   -0.7281074   -1.1574460 
H    -0.8722021   -1.4987244   -2.2705509 
H    -0.3833552    0.0437788   -2.0065011 
