24
Energy = -629.7706081
C     0.1063091    2.2263645    1.3268610 
C    -1.2668641    2.2985919    1.1133208 
C    -1.9737297    1.1478408    0.7759892 
C     0.7583934    1.0089406    1.1979430 
C     0.0699516   -0.1565684    0.8530346 
C    -1.3068852   -0.0638700    0.6495437 
O    -1.8676042    3.5177919    1.2545502 
H    -2.8137552    3.4318829    1.0923784 
H    -1.8684470   -0.9528632    0.3904232 
H     1.8268088    0.9606099    1.3696309 
H     0.6445471    3.1245106    1.5990401 
H    -3.0460639    1.1965804    0.6191168 
C     0.7954366   -1.4643029    0.6693227 
C     1.2760709   -1.6951358   -0.7817532 
H     0.1501047   -2.2970837    0.9475612 
H     1.6817274   -1.4945655    1.3036280 
C     0.0545676   -1.8869935   -1.6840744 
O    -0.7868305   -2.7325694   -1.5127497 
O     0.0030724   -1.0152419   -2.7149143 
H    -0.8051125   -1.2205721   -3.2114930 
N     2.2294764   -0.6756367   -1.1754989 
H     1.7849167   -2.6638262   -0.7982410 
H     2.5610343   -0.8331997   -2.1189172 
H     1.7928754    0.2393154   -1.1647019 
