24
Energy = -629.7683713
C     0.3265447    2.4075491   -0.0923622 
C    -1.0434678    2.6045829    0.0596039 
C    -1.9248022    1.5675065   -0.2285894 
C     0.8012061    1.1788404   -0.5220128 
C    -0.0647012    0.1199637   -0.8095275 
C    -1.4321941    0.3410026   -0.6590041 
O    -1.4630815    3.8335138    0.4838661 
H    -2.4249067    3.8439922    0.5441359 
H    -2.1313056   -0.4531013   -0.8920284 
H     1.8688921    1.0359521   -0.6370128 
H     1.0019593    3.2247162    0.1232981 
H    -2.9939090    1.7186511   -0.1247538 
C     0.4705371   -1.2250497   -1.2139152 
C     0.7352109   -2.1808451   -0.0098041 
H     1.4046758   -1.1126681   -1.7666169 
H    -0.2390462   -1.7333905   -1.8713396 
C     1.8277071   -1.5679272    0.8482041 
O     2.9704841   -1.4452715    0.4857973 
O     1.3888875   -1.1146303    2.0378329 
H     2.1459416   -0.6944554    2.4756872 
N    -0.4289801   -2.5536125    0.7743119 
H     1.1740981   -3.0924601   -0.4219748 
H    -0.8286165   -1.7471625    1.2394425 
H    -1.1411333   -2.9556966    0.1767616 
