24
Energy = -629.7644499
C     0.3723930    2.1724429    1.4789338 
C    -0.9168828    2.5248152    1.0913353 
C    -1.7587781    1.5634535    0.5386521 
C     0.8077365    0.8669545    1.3082081 
C    -0.0189205   -0.1105764    0.7512437 
C    -1.3082915    0.2614182    0.3732202 
O    -1.3030527    3.8204568    1.2797067 
H    -2.2040788    3.9398165    0.9587966 
H    -1.9756887   -0.4716433   -0.0635669 
H     1.8138875    0.6011834    1.6084072 
H     1.0164464    2.9259109    1.9121668 
H    -2.7649277    1.8321012    0.2360323 
C     0.4865711   -1.5118367    0.5274345 
C     1.0340263   -1.7473956   -0.9022922 
H    -0.3074984   -2.2316103    0.7436043 
H     1.3055805   -1.7269568    1.2140372 
C    -0.0843673   -1.6252509   -1.9490590 
O    -0.1233099   -0.7927465   -2.8067168 
O    -1.0760807   -2.5547019   -1.8609354 
H    -0.9016445   -3.1676335   -1.1347076 
N     2.1574873   -0.8708601   -1.1534740 
H     1.3948008   -2.7824412   -0.9470355 
H     2.5059445   -1.0099399   -2.0950287 
H     1.8486476    0.0950398   -1.1089629 
