24
Energy = -629.7719423
C    -0.3644843    1.7622246    1.8782196 
C    -1.5305207    2.1208096    1.2089125 
C    -2.0812156    1.2532687    0.2698460 
C     0.2446839    0.5437589    1.6042382 
C    -0.2867130   -0.3359125    0.6625561 
C    -1.4608250    0.0423821    0.0069544 
O    -2.1783805    3.3017462    1.4365931 
H    -1.6995125    3.8101108    2.1007728 
H    -1.9007098   -0.6271457   -0.7222303 
H     1.1514411    0.2737535    2.1313123 
H     0.0640938    2.4300836    2.6177914 
H    -2.9918825    1.5391550   -0.2393427 
C     0.4020833   -1.6355185    0.3372104 
C     1.4258532   -1.5163077   -0.8161144 
H    -0.3326436   -2.3956407    0.0720808 
H     0.9546593   -1.9929807    1.2066279 
C     0.7330360   -1.1609123   -2.1305179 
O     0.9529292   -0.1843262   -2.7959912 
O    -0.1729304   -2.1013472   -2.4966811 
H    -0.5546865   -1.8130870   -3.3408628 
N     2.4911370   -0.5998393   -0.4632266 
H     1.8579451   -2.5112072   -0.9630749 
H     3.1649002   -0.5374131   -1.2176629 
H     2.1117422    0.3343452   -0.3474108 
