24
Energy = -629.7685492
C    -0.0918454    2.0229696    1.7169513 
C    -1.3273895    2.5192240    1.3127681 
C    -2.1579536    1.7387953    0.5134055 
C     0.3093683    0.7560559    1.3171433 
C    -0.5044243   -0.0372232    0.5139662 
C    -1.7416861    0.4759341    0.1237559 
O    -1.7776659    3.7572598    1.6734492 
H    -1.1052628    4.2038350    2.2001382 
H    -2.3968285   -0.1243605   -0.4976690 
H     1.2798698    0.3888092    1.6269588 
H     0.5595215    2.6278863    2.3380942 
H    -3.1184016    2.1327720    0.2093944 
C    -0.0567894   -1.3959075    0.0514802 
C     0.6252468   -1.4143965   -1.3352391 
H    -0.9234193   -2.0613905   -0.0131455 
H     0.6303678   -1.8391053    0.7766026 
C     1.9290211   -0.6082187   -1.2815157 
O     1.9844133    0.5789597   -1.4385587 
O     3.0101905   -1.3536334   -0.9909321 
H     2.7022581   -2.2855292   -1.0128130 
N     0.9380046   -2.8047399   -1.6875199 
H    -0.0277863   -0.9144346   -2.0549882 
H     0.2147939   -3.4399606   -1.3739159 
H     1.0463970   -2.9236010   -2.6878108 
