24
Energy = -629.7706056
C     0.4460519    2.3854311   -0.2027472 
C    -0.9036575    2.6964579   -0.0621301 
C    -1.8653061    1.7231370   -0.3147923 
C     0.8212440    1.1081780   -0.5886215 
C    -0.1275248    0.1132143   -0.8410027 
C    -1.4737200    0.4469543   -0.7017961 
O    -1.2242852    3.9691613    0.3181332 
H    -2.1825035    4.0591875    0.3690225 
H    -2.2303390   -0.3027136   -0.8985261 
H     1.8736875    0.8778544   -0.7003195 
H     1.1846206    3.1533417   -0.0147118 
H    -2.9188417    1.9625145   -0.2171809 
C     0.2936074   -1.2843797   -1.2139276 
C     0.5293936   -2.1969446    0.0119838 
H     1.2134428   -1.2591751   -1.7977929 
H    -0.4790149   -1.7612927   -1.8175611 
C     1.7593112   -1.6957922    0.7726544 
O     2.8582956   -1.5957537    0.2886676 
O     1.5033277   -1.3727331    2.0591008 
H     2.3392342   -1.0566254    2.4377174 
N    -0.6940465   -2.3569397    0.7747638 
H     0.8237247   -3.1776565   -0.3733476 
H    -0.5503659   -2.9719590    1.5660006 
H    -0.9963360   -1.4634666    1.1464134 
