24
Energy = -629.7690031
C     0.1542197    2.3029284    1.5944987 
C    -1.0438931    2.8137821    1.1012048 
C    -1.9132484    1.9804107    0.4052104 
C     0.4693383    0.9697866    1.3853648 
C    -0.3870086    0.1145760    0.6870125 
C    -1.5816247    0.6448452    0.2048785 
O    -1.3126108    4.1332184    1.3342213 
H    -2.1704966    4.3594819    0.9577374 
H    -2.2655990    0.0047043   -0.3387289 
H     1.4010888    0.5818568    1.7810479 
H     0.8189214    2.9578228    2.1419871 
H    -2.8511819    2.3704745    0.0246266 
C    -0.0072908   -1.3203308    0.4313690 
C     0.9434777   -1.4575045   -0.7630153 
H    -0.8967052   -1.9183982    0.2288441 
H     0.4781780   -1.7492906    1.3080791 
C     1.4072812   -2.8958205   -0.9236723 
O     1.2971857   -3.7701719   -0.1063306 
O     2.0301558   -3.0874803   -2.1115223 
H     2.3122640   -4.0152494   -2.1376974 
N     0.2948370   -1.0038110   -1.9907982 
H     1.8630233   -0.8917729   -0.5313312 
H     0.0427135   -0.0265949   -1.8993443 
H     0.9169747   -1.0974628   -2.7836416 
