24
Energy = -629.7706707
C     0.4029520    2.6465738   -0.4629344 
C    -0.9421617    2.8459263   -0.1632462 
C    -1.8178724    1.7650647   -0.1696985 
C     0.8567844    1.3719066   -0.7615615 
C    -0.0041431    0.2728313   -0.7722809 
C    -1.3461680    0.4932790   -0.4724013 
O    -1.3447084    4.1201459    0.1236546 
H    -2.2917357    4.1262837    0.3023750 
H    -2.0356653   -0.3420892   -0.4695920 
H     1.9053063    1.2284355   -0.9964235 
H     1.0735358    3.4954915   -0.4610870 
H    -2.8679387    1.9155989    0.0572347 
C     0.5148677   -1.1123892   -1.0517863 
C     1.1333184   -1.7985237    0.1808170 
H     1.2884326   -1.0934957   -1.8207643 
H    -0.2943022   -1.7489874   -1.4175692 
C     0.0879630   -1.8579287    1.2896718 
O    -0.8951067   -2.5554150    1.2598431 
O     0.3768138   -1.0461268    2.3270401 
H    -0.3507354   -1.1238934    2.9657253 
N     1.6188146   -3.1217328   -0.1921770 
H     1.9761230   -1.2043824    0.5352175 
H     2.1246040   -3.5507185    0.5744802 
H     0.8310219   -3.7258544   -0.4045372 
