24
Energy = -629.7689095
C     0.3168455    2.7799769   -0.2223663 
C    -1.0253363    3.0287917    0.0460243 
C    -1.9478302    1.9884999   -0.0299456 
C     0.7242745    1.4975553   -0.5615666 
C    -0.1823684    0.4386945   -0.6396902 
C    -1.5228965    0.7108978   -0.3699101 
O    -1.3813623    4.3070944    0.3726339 
H    -2.3323237    4.3492840    0.5232932 
H    -2.2532311   -0.0876752   -0.4324679 
H     1.7710445    1.3129057   -0.7700095 
H     1.0242644    3.5967394   -0.1685109 
H    -2.9971205    2.1782795    0.1694103 
C     0.2726027   -0.9601047   -0.9635137 
C     0.4890140   -1.8005389    0.3002021 
H     1.2104587   -0.9352185   -1.5200827 
H    -0.4622042   -1.4655761   -1.5901489 
C     0.8171819   -3.2407902   -0.0575360 
O     0.6585042   -3.7561677   -1.1317732 
O     1.2757839   -3.9282905    1.0159689 
H     1.4464988   -4.8361295    0.7198097 
N     1.5576990   -1.2337719    1.1183977 
H    -0.4748672   -1.8597144    0.8362354 
H     1.3053747   -0.2952112    1.4051574 
H     1.7099935   -1.7895302    1.9503888 
