24
Energy = -629.7646855
C     0.0513391    2.0954945    1.6039341 
C    -1.1103091    2.5870298    1.0141444 
C    -1.8871091    1.7488202    0.2180209 
C     0.4259727    0.7781249    1.3928862 
C    -0.3385382   -0.0824129    0.6017609 
C    -1.5003922    0.4289880    0.0207815 
O    -1.4363022    3.8894285    1.2507050 
H    -2.2553534    4.1107287    0.7931160 
H    -2.1228026   -0.2142931   -0.5906425 
H     1.3384651    0.4106898    1.8461875 
H     0.6487953    2.7554891    2.2181851 
H    -2.7963324    2.1230510   -0.2394716 
C     0.0899437   -1.5028190    0.3451091 
C     0.5895418   -1.7759333   -1.1027821 
H    -0.7558962   -2.1765380    0.5096182 
H     0.8760394   -1.7979643    1.0431149 
C     1.8909102   -1.0163967   -1.3638542 
O     2.9682374   -1.5437785   -1.3965995 
O     1.7766249    0.3143161   -1.5454752 
H     0.8665406    0.6039254   -1.3810009 
N     0.8082050   -3.1793358   -1.3889438 
H    -0.1664515   -1.3751753   -1.7898740 
H     1.7888789   -3.4051822   -1.2653237 
H     0.2499925   -3.7762571   -0.7935963 
