24
Energy = -629.7665591
C    -0.2864496    2.1348106    1.5205288 
C    -1.3543948    2.5780876    0.7460627 
C    -1.9822924    1.6965301   -0.1314617 
C     0.1491885    0.8201839    1.4129783 
C    -0.4634536   -0.0789564    0.5422390 
C    -1.5378563    0.3869229   -0.2237573 
O    -1.8284872    3.8548887    0.8027599 
H    -1.3150421    4.3664265    1.4384102 
H    -2.0433739   -0.2917537   -0.9012510 
H     0.9893316    0.4921742    2.0125837 
H     0.2083627    2.8158334    2.2040520 
H    -2.8161554    2.0487987   -0.7236202 
C     0.0192198   -1.4996749    0.4056393 
C     0.6942033   -1.8306569   -0.9460890 
H    -0.8160817   -2.1959018    0.4987100 
H     0.7204253   -1.7337859    1.2106733 
C     2.0005140   -1.0371134   -1.1242048 
O     3.0880235   -1.5429785   -1.1031024 
O     1.8725970    0.2937564   -1.3252738 
H     0.9527923    0.5716589   -1.1946195 
N     0.8825674   -3.2656801   -1.0483767 
H     0.0132773   -1.5231305   -1.7464412 
H     1.2732324   -3.4991756   -1.9546623 
H     1.5798519   -3.5612644   -0.3717773 
