24
Energy = -629.7691709
C    -0.3802603    1.9057130    1.7426152 
C    -1.4124096    2.4974074    1.0220282 
C    -2.0551285    1.7765847    0.0188406 
C     0.0022690    0.6044671    1.4518551 
C    -0.6259290   -0.1347950    0.4494091 
C    -1.6599975    0.4752873   -0.2584252 
O    -1.7563319    3.7803260    1.3425371 
H    -2.4711253    4.0761117    0.7677402 
H    -2.1711949   -0.0746832   -1.0401345 
H     0.8099058    0.1527239    2.0146410 
H     0.1090963    2.4731144    2.5229583 
H    -2.8640775    2.2313843   -0.5426990 
C    -0.1798753   -1.5332975    0.1105496 
C     0.6887933   -1.6001033   -1.1536067 
H    -1.0378534   -2.1850105   -0.0647606 
H     0.3826989   -1.9574378    0.9447779 
C     1.9038081   -0.6855401   -1.0589383 
O     2.2053112    0.1622425   -1.8569365 
O     2.6728687   -0.9691721    0.0242648 
H     3.4353738   -0.3706657   -0.0075739 
N     1.0609900   -2.9870735   -1.4286006 
H     0.1151040   -1.2290643   -2.0032863 
H     1.5675075   -3.0617240   -2.3032838 
H     1.6604568   -3.3467953   -0.6939715 
