24
Energy = -629.7694502
C     0.2477028    1.2519478    2.2615395 
C    -0.5848144    2.2186309    1.7061309 
C    -1.3475758    1.9090788    0.5836932 
C     0.3145418   -0.0080224    1.6864387 
C    -0.4341071   -0.3383072    0.5552823 
C    -1.2676588    0.6427569    0.0209367 
O    -0.6203287    3.4451397    2.3063410 
H    -1.2212994    4.0237590    1.8237355 
H    -1.8668854    0.4158268   -0.8526497 
H     0.9586329   -0.7546036    2.1352906 
H     0.8281520    1.4993714    3.1402375 
H    -2.0040034    2.6562578    0.1510017 
C    -0.3113764   -1.6870802   -0.0960972 
C     0.8062963   -1.7696746   -1.1827466 
H    -1.2582659   -1.9778760   -0.5548964 
H    -0.0732733   -2.4460403    0.6533759 
C     0.4956673   -0.7971072   -2.3013559 
O     1.0745468    0.2338365   -2.5144719 
O    -0.5672138   -1.2038468   -3.0364771 
H    -0.7223722   -0.5205551   -3.7073428 
N     2.1572303   -1.5224214   -0.7197388 
H     0.7515771   -2.7751433   -1.6103385 
H     2.3202896   -0.5271465   -0.6204975 
H     2.3245377   -1.9687810    0.1726087 
