24
Energy = -629.7691229
C     0.4340628    1.9236133    1.6254763 
C    -0.7176214    2.6119398    1.2563375 
C    -1.7299354    1.9457908    0.5712045 
C     0.5648160    0.5811642    1.3040958 
C    -0.4364718   -0.1050785    0.6148048 
C    -1.5826112    0.6013450    0.2568144 
O    -0.8031816    3.9329226    1.5954864 
H    -1.6422068    4.2921807    1.2860018 
H    -2.3797255    0.0950818   -0.2755175 
H     1.4671630    0.0545245    1.5910850 
H     1.2114216    2.4493256    2.1638015 
H    -2.6323930    2.4760192    0.2865020 
C    -0.2563141   -1.5448206    0.2172009 
C     0.2587946   -1.7390365   -1.2341900 
H    -1.2064144   -2.0807644    0.2910289 
H     0.4505032   -2.0385891    0.8875766 
C     1.5975005   -1.0379240   -1.3715632 
O     2.6234381   -1.4500941   -0.8923452 
O     1.5172734    0.1159942   -2.0569837 
H     2.4009214    0.5187432   -2.0473312 
N     0.4527556   -3.1298702   -1.6240565 
H    -0.4450791   -1.2711919   -1.9238095 
H     1.2287364   -3.5255263   -1.1037353 
H    -0.3754324   -3.6757495   -1.4178843 
