24
Energy = -629.7670237
C    -0.2627824    2.1820625    1.6290074 
C    -1.5149109    2.5690104    1.1584602 
C    -2.2622416    1.6875294    0.3844744 
C     0.2343407    0.9250287    1.3236488 
C    -0.5001357    0.0250792    0.5470754 
C    -1.7517276    0.4289693    0.0877746 
O    -1.9586330    3.8186038    1.4893014 
H    -2.8318582    3.9627028    1.1078760 
H    -2.3499341   -0.2518796   -0.5075825 
H     1.2150218    0.6365006    1.6753582 
H     0.3086347    2.8757984    2.2313451 
H    -3.2418487    1.9781930    0.0203631 
C     0.0380542   -1.3368753    0.1813472 
C     1.0131931   -1.3351340   -1.0199549 
H    -0.8029489   -1.9794089   -0.0876749 
H     0.5337677   -1.7921092    1.0407639 
C     2.4831213   -1.1889092   -0.5842580 
O     2.8344546   -0.6445824    0.4266461 
O     3.3545225   -1.7050203   -1.4615797 
H     2.8087356   -2.1659050   -2.1357588 
N     0.9137580   -2.4868188   -1.9284043 
H     0.8110209   -0.4458806   -1.6245831 
H     0.8136973   -3.3534035   -1.4101309 
H     0.1146987   -2.4035514   -2.5435145 
