24
Energy = -629.7698889
C     0.2892843    2.8170695    0.0302179 
C    -1.0789429    3.0446139    0.1376230 
C    -1.9320833    1.9891649    0.4477341 
C     0.7933263    1.5379244    0.2332983 
C    -0.0439317    0.4690825    0.5434828 
C    -1.4136243    0.7191511    0.6451184 
O    -1.6375922    4.2791317   -0.0460117 
H    -0.9456253    4.9178723   -0.2507287 
H    -2.0847093   -0.0985658    0.8699572 
H     1.8617081    1.3736922    0.1507213 
H     0.9602759    3.6363457   -0.2050173 
H    -2.9940977    2.1790166    0.5288690 
C     0.5209948   -0.9128924    0.7233637 
C     0.4341575   -1.7700914   -0.5654056 
H    -0.0118091   -1.4491327    1.5133206 
H     1.5663641   -0.8434916    1.0287346 
C     1.3371757   -2.9851478   -0.3921884 
O     0.9643751   -4.0883243   -0.0860524 
O     2.6417246   -2.6832040   -0.5864427 
H     3.1526922   -3.4905559   -0.4154659 
N    -0.9429741   -2.1244987   -0.8526406 
H     0.8287340   -1.1746297   -1.3906197 
H    -1.0402386   -2.4478189   -1.8074572 
H    -1.2251839   -2.8947116   -0.2544109 
