24
Energy = -629.7693293
C     0.3379982    2.4117502   -0.2118324 
C    -1.0300883    2.6573896   -0.1362475 
C    -1.9300058    1.6241298   -0.3778273 
C     0.7906156    1.1391784   -0.5194930 
C    -0.0932413    0.0843077   -0.7584103 
C    -1.4581585    0.3540479   -0.6859403 
O    -1.4294833    3.9277133    0.1680218 
H    -2.3920202    3.9656600    0.1981420 
H    -2.1718863   -0.4366885   -0.8829176 
H     1.8576464    0.9597844   -0.5759930 
H     1.0287558    3.2240154   -0.0294918 
H    -2.9973253    1.8118714   -0.3317874 
C     0.4168494   -1.3017387   -1.0363547 
C     0.5952311   -2.1836888    0.2389641 
H     1.3741294   -1.2569983   -1.5589589 
H    -0.2784805   -1.8360635   -1.6887299 
C     1.5943681   -1.5295089    1.1705690 
O     1.3309943   -0.9893438    2.2107942 
O     2.8523014   -1.5824204    0.6714795 
H     3.4243338   -1.1168289    1.3016749 
N    -0.6144200   -2.4643613    0.9866795 
H     1.0389803   -3.1266792   -0.0938097 
H    -0.8573616   -1.6753725    1.5743417 
H    -1.3897327   -2.6601552    0.3671273 
