24
Energy = -629.7655216
C     0.5796733    2.6414730    0.3457645 
C    -0.7739056    2.9514849    0.2434289 
C    -1.6588765    2.0115371   -0.2745839 
C     1.0303797    1.3982089   -0.0674179 
C     0.1592350    0.4380333   -0.5872511 
C    -1.1898500    0.7685849   -0.6828665 
O    -1.1726958    4.1899349    0.6605592 
H    -2.1248600    4.2794276    0.5412906 
H    -1.8874752    0.0415521   -1.0781434 
H     2.0876206    1.1717015    0.0118963 
H     1.2602595    3.3815326    0.7449770 
H    -2.7137213    2.2494685   -0.3608799 
C     0.6656286   -0.9189231   -1.0027637 
C     0.9587812   -1.8437638    0.1837999 
H     1.6008221   -0.8060728   -1.5606115 
H    -0.0453763   -1.4125872   -1.6645013 
C    -0.2734039   -2.1747248    1.0173253 
O    -0.2573693   -2.2998812    2.2146171 
O    -1.3874160   -2.3658859    0.2814696 
H    -2.0919460   -2.6144625    0.9003039 
N     1.4939157   -3.1206217   -0.3003067 
H     1.6340815   -1.3270577    0.8759541 
H     2.2814973   -2.9541533   -0.9161597 
H     1.8250016   -3.6848054    0.4740994 
