24
Energy = -629.7649987
C    -0.2710761    1.8301061    1.8252241 
C    -1.2770701    2.4619560    1.0995670 
C    -1.9020544    1.7856945    0.0542649 
C     0.1069226    0.5336594    1.5019400 
C    -0.5053699   -0.1623057    0.4614079 
C    -1.5164404    0.4896223   -0.2523911 
O    -1.6919329    3.7333264    1.3649028 
H    -1.1859681    4.0950900    2.1014206 
H    -2.0195065   -0.0294044   -1.0603639 
H     0.9016312    0.0596780    2.0648136 
H     0.2209210    2.3515496    2.6387709 
H    -2.6877238    2.2829091   -0.4985427 
C    -0.0637431   -1.5490750    0.0780170 
C     0.7236426   -1.6252399   -1.2622574 
H    -0.9382356   -2.1950640   -0.0418414 
H     0.5545151   -1.9864712    0.8646672 
C     2.0534934   -0.8833020   -1.1272058 
O     3.1059312   -1.4383736   -0.9718599 
O     1.9914176    0.4628054   -1.1680482 
H     1.0698343    0.7609864   -1.1914717 
N     0.9948254   -2.9772943   -1.7068060 
H     0.1284235   -1.1037974   -2.0220577 
H     1.9096429   -3.2678791   -1.3801646 
H     0.2979201   -3.6291766   -1.3719858 
