13
Energy =
C    -3.5693669    1.6545504    0.3546347 
C    -2.4182486    2.3292588   -0.3816558 
C    -4.8462743    2.5149600    0.3382317 
H    -4.6551782    3.5178316    0.7790206 
H    -5.6534769    2.0274761    0.9260363 
H    -5.2038849    2.6576458   -0.7062811 
N    -3.8696046    0.3302784   -0.2098628 
H    -3.2149653    1.5253661    1.4051619 
H    -4.6667809   -0.1110476    0.3059319 
H    -4.1601853    0.4292353   -1.2137839 
O    -2.4522691    2.4721361   -1.7633393 
O    -1.3717272    2.9000152    0.3315630 
H    -1.6749609    3.7826353    0.7141212 
