13
Energy =
C    -3.8669910    1.8936192    0.3062747 
C    -2.7328632    2.9078314    0.3325215 
C    -4.8652093    2.1486088   -0.8513945 
H    -4.9557174    1.2713525   -1.5273104 
H    -4.5536234    3.0128929   -1.4815255 
H    -5.8748880    2.3719280   -0.4451676 
N    -3.3546992    0.5163057    0.2325812 
H    -4.3851161    2.0315246    1.2859680 
H    -4.1521910   -0.1622168    0.2423648 
H    -2.8300401    0.3836547   -0.6667047 
O    -1.8188558    2.9752387   -0.7142934 
O    -2.6381252    3.8182774    1.3770528 
H    -1.8252326    4.4015560    1.2250981 
