13
 energy: -1.828871498838 gnorm: 0.000814538341 xtb: 6.6.0 (2ccbbd7)
C           -3.74470708604527        1.67253403342860        0.36387898447461
C           -2.50240643987701        2.56198309459646        0.30266318430519
C           -4.92713702300898        2.39782106322927       -0.24828522514878
H           -5.10259329880183        3.35154090558468        0.25162541639509
H           -5.83439065853559        1.79665629673133       -0.18919382149853
H           -4.73208070577347        2.60508618589532       -1.30000663561806
N           -3.49194449574493        0.40299116469341       -0.32377203587640
H           -3.95397806907223        1.47294246516824        1.42833469981313
H           -2.48577471123282        0.57340525588900       -0.79669365463601
H           -3.39712681259941       -0.37513745965565        0.31932585688261
O           -2.52127874795425        3.59785160500516        0.92951345430357
O           -1.48114595661505        2.12343950432725       -0.46241122307451
H           -1.74812378952709        1.17088003899642       -0.88682544858389
