13
Energy =
C    -3.7914977    1.8403050    0.3836911 
C    -2.4664640    2.5911595    0.3386488 
C    -4.8060958    2.3696972   -0.6594511 
H    -5.1453405    1.5768655   -1.3599716 
H    -4.3724451    3.1901977   -1.2764390 
H    -5.7046525    2.7762477   -0.1472313 
N    -3.6026197    0.3910748    0.2090952 
H    -4.1861575    2.0297461    1.4115701 
H    -4.5198087   -0.0987457    0.3379522 
H    -3.2767319    0.1922539   -0.7686041 
O    -2.2527144    3.6689254    1.1865525 
O    -1.4902070    2.2580238   -0.5904857 
H    -0.9564549    1.4862321   -0.2190948 
