13
Energy =
C    -3.7606732    1.7224568    0.3563746 
C    -2.5956890    2.7217545    0.4166730 
C    -4.9650684    2.2781515   -0.4061435 
H    -5.3126633    3.2326372    0.0448480 
H    -5.7990354    1.5449516   -0.3891131 
H    -4.6878003    2.4645266   -1.4676513 
N    -3.3941984    0.4446414   -0.2819792 
H    -4.0776411    1.5493000    1.4119556 
H    -2.3761810    0.4103693   -0.5351845 
H    -3.5697322   -0.3480260    0.3798862 
O    -2.5460210    3.7993926   -0.4606945 
O    -1.5519197    2.5494129    1.3252107 
H    -1.6771245    1.7212086    1.8882863 
