13
Energy =
C    -3.8476713    1.6973993    0.3264896 
C    -2.5556041    2.4314252    0.7047363 
C    -4.7125703    2.5046184   -0.6472729 
H    -5.6491690    1.9495223   -0.8694001 
H    -4.1696359    2.6727637   -1.6034633 
H    -4.9763559    3.4927033   -0.2122342 
N    -3.5891886    0.3822392   -0.2764492 
H    -4.4387920    1.5581617    1.2606357 
H    -2.9335227    0.4871045   -1.0893539 
H    -3.1015863   -0.2300839    0.4204548 
O    -1.9250311    3.2469288   -0.2280478 
O    -1.9602995    2.2559496    1.9536263 
H    -2.4706065    1.6030163    2.5296660 
