13
Energy =
C    -3.5991917    1.7155098    0.3763262 
C    -2.6298372    2.8809676    0.2038409 
C    -5.0053031    2.0608535   -0.1332664 
H    -5.3862274    2.9814506    0.3602874 
H    -5.7120127    1.2289805    0.0675591 
H    -4.9713455    2.2398293   -1.2317381 
N    -3.1368243    0.5112691   -0.3318079 
H    -3.6444278    1.5256948    1.4756624 
H    -2.1991923    0.2269588    0.0395618 
H    -3.7783121   -0.2887024   -0.1164158 
O    -2.8953175    3.9103538   -0.6916498 
O    -1.4588415    2.9229324    0.9484939 
H    -0.7924366    2.2815608    0.5450587 
