13
Energy =
C    -3.6577024    1.7499674    0.2894004 
C    -2.4891026    2.6814763   -0.0089040 
C    -5.0237072    2.3790488   -0.0590308 
H    -5.5584955    1.7831136   -0.8301151 
H    -4.9142304    3.4113418   -0.4611271 
H    -5.6706435    2.4219760    0.8423485 
N    -3.5373784    0.4640328   -0.4164576 
H    -3.6164024    1.5676379    1.3907855 
H    -3.4105142    0.6500219   -1.4419425 
H    -2.6620623   -0.0184729   -0.1001021 
O    -1.5331509    2.9335209    0.9663509 
O    -2.3547438    3.2705249   -1.2595289 
H    -1.5125797    3.8322671   -1.2624754 
