13
 energy: -1.828855293824 gnorm: 0.000342120565 xtb: 6.6.0 (2ccbbd7)
C           -3.73053580746044        1.69947826151210        0.36917280449702
C           -2.48629780242850        2.57378342323179        0.20821398495784
C           -4.93318651374538        2.39808204049823       -0.23444457185027
H           -5.84091238768688        1.80937609105874       -0.10199382603560
H           -4.78110096663000        2.54186052911962       -1.30371401414380
H           -5.08107507309056        3.38090925907502        0.21560617227687
N           -3.51403464432856        0.39027265855338       -0.25362979857388
H           -3.89568117271965        1.56239775139345        1.45114499039107
H           -2.50618314339646        0.50687341549521       -0.73817511847844
H           -3.44163141364788       -0.35767245532465        0.42656289181537
O           -2.49174655081811        3.66135606228535        0.74008879071681
O           -1.47886322392124        2.06355890461690       -0.53056409032608
H           -1.75772456540104        1.08268999449951       -0.87319570196057
