13
Energy =
C    -3.5354656    1.6713549    0.2670938 
C    -2.6051329    2.8656082    0.1006013 
C    -4.9996516    2.0694766    0.0523616 
H    -5.1402361    2.4288334   -0.9917482 
H    -5.2890256    2.8856823    0.7491628 
H    -5.6699621    1.2008366    0.2186825 
N    -3.2103600    0.5950283   -0.6808095 
H    -3.3990811    1.3174288    1.3179751 
H    -2.2020660    0.3288925   -0.5640220 
H    -3.7578318   -0.2629700   -0.4320416 
O    -1.5356654    3.0341398    0.9689434 
O    -2.7697582    3.7555570   -0.9524335 
H    -2.3137973    3.3666281   -1.7648904 
