13
Energy =
C    -3.6012025    1.5629645    0.1666650 
C    -2.4661991    2.5585299    0.3725247 
C    -4.9631235    2.2596682    0.0853470 
H    -4.9799746    2.9780649   -0.7647122 
H    -5.1833214    2.8101275    1.0249587 
H    -5.7626029    1.5054919   -0.0830741 
N    -3.4322335    0.7542205   -1.0504336 
H    -3.5886644    0.8913357    1.0591495 
H    -3.3328086    1.3887000   -1.8809627 
H    -2.5298656    0.2234713   -0.9889777 
O    -2.0427813    3.3710266   -0.6707854 
O    -1.8812646    2.6994132    1.6228831 
H    -2.4844101    3.2584598    2.2081748 
