13
Energy =
C    -3.6715802    1.6398043    0.3307495 
C    -2.5067180    2.6166209    0.2779161 
C    -5.0019269    2.3165425   -0.0500738 
H    -5.2008180    3.1849818    0.6152311 
H    -5.8445844    1.5993388    0.0458173 
H    -4.9546641    2.6859999   -1.0999375 
N    -3.4204121    0.4741198   -0.5408206 
H    -3.7313169    1.3179697    1.3986947 
H    -3.3360520   -0.3927469    0.0405736 
H    -4.1907943    0.3063222   -1.2304002 
O    -2.2969078    3.4198096   -0.8394223 
O    -1.6488029    2.7313422    1.3648802 
H    -0.9318962    3.4078207    1.1369370 
