13
Energy =
C    -3.8750181    1.8943034    0.3492119 
C    -2.7151986    2.8752239    0.2678009 
C    -4.8317012    2.0464684   -0.8480735 
H    -5.7066833    1.3725024   -0.7316134 
H    -4.3021468    1.7956981   -1.7945288 
H    -5.1998042    3.0933300   -0.9226451 
N    -3.3835000    0.5052475    0.4427879 
H    -4.4289866    2.1678018    1.2795069 
H    -3.6494461    0.0971026    1.3696425 
H    -3.7871367   -0.1199768   -0.2941774 
O    -1.8991530    2.9247690   -0.8587267 
O    -2.4874623    3.7667176    1.3097443 
H    -1.6713439    4.3220874    1.0874582 
