13
Energy =
C    -3.6344360    1.6965731    0.2442139 
C    -2.4379970    2.6006848   -0.0237758 
C    -4.9873023    2.4223936    0.0333875 
H    -5.6141053    1.9231997   -0.7361101 
H    -4.8399834    3.4733536   -0.3063813 
H    -5.5633770    2.4463969    0.9828209 
N    -3.5833546    0.4824776   -0.5850391 
H    -3.5333829    1.4015206    1.3162817 
H    -4.4065807   -0.1298354   -0.3758834 
H    -3.6272534    0.7506546   -1.5989896 
O    -1.5019020    2.8387524    0.9759340 
O    -2.2894521    3.2276204   -1.2557881 
H    -1.4300579    3.7615321   -1.2424472 
