13
Energy =
C    -3.6725377    1.6255768    0.2373347 
C    -2.6224659    2.6915348    0.5158795 
C    -5.0139615    2.2302798   -0.2148928 
H    -4.8853113    2.7956170   -1.1655669 
H    -5.3980438    2.9372269    0.5531810 
H    -5.7732039    1.4345736   -0.3698587 
N    -3.2055789    0.6646400   -0.7739488 
H    -3.8143257    1.1001482    1.2127948 
H    -3.9275019   -0.0802908   -0.9211530 
H    -3.0705642    1.1534598   -1.6931641 
O    -2.4763106    3.7817275   -0.3329138 
O    -1.7550875    2.5478152    1.5884936 
H    -1.0188197    1.9135149    1.3138257 
