13
Energy =
C    -3.6878021    1.6892191    0.3204786 
C    -2.4680036    2.6017646    0.2612654 
C    -4.8871927    2.2845584   -0.4248361 
H    -5.7634332    1.6075579   -0.3254015 
H    -4.6605319    2.4013990   -1.5062922 
H    -5.1577464    3.2779864   -0.0030676 
N    -3.4298263    0.3459360   -0.2233329 
H    -3.9456948    1.6049191    1.4043617 
H    -3.1097560    0.4270291   -1.2186639 
H    -2.6250274   -0.0855812    0.2931413 
O    -2.2725333    3.5514316    1.2529992 
O    -1.5807385    2.5437048   -0.8054082 
H    -1.9794942    3.0383190   -1.5890806 
