13
Energy =
C    -3.8525696    1.8002982    0.2778390 
C    -2.7696249    2.8604255    0.5060684 
C    -4.8603156    2.2385394   -0.7992189 
H    -4.3495004    2.3821971   -1.7784757 
H    -5.3397815    3.2012842   -0.5152168 
H    -5.6608282    1.4777553   -0.9254101 
N    -3.2718104    0.5044597   -0.1043378 
H    -4.3836755    1.6726909    1.2495343 
H    -4.0294723   -0.2036328   -0.2509066 
H    -2.7502781    0.5969362   -1.0107883 
O    -1.7029835    2.9568494   -0.3808279 
O    -2.8657510    3.7928287    1.5408246 
H    -3.7041397    3.6775949    2.0886942 
