13
Energy =
C    -3.8948924    1.6865170    0.2563589 
C    -2.5828434    2.2183707    0.8390699 
C    -4.4757679    2.6542824   -0.7949550 
H    -3.7949940    3.5139340   -0.9818294 
H    -5.4546199    3.0507388   -0.4561056 
H    -4.6271615    2.1349523   -1.7661230 
N    -3.7900956    0.3467365   -0.3545611 
H    -4.5937634    1.6395712    1.1224512 
H    -2.8114344   -0.0035183   -0.3930770 
H    -4.3523772   -0.3496718    0.1989305 
O    -2.6097484    2.9202124    2.0343342 
O    -1.3891546    2.1674572    0.1363086 
H    -1.5261728    1.3773948   -0.4919945 
