13
Energy =
C    -3.7491918    1.9389415    0.3011783 
C    -2.4970778    2.7075320   -0.1315981 
C    -4.9637006    2.2989218   -0.5620947 
H    -4.7683548    2.0501829   -1.6290608 
H    -5.1995354    3.3822599   -0.4884342 
H    -5.8508499    1.7172397   -0.2284852 
N    -3.5755740    0.4776267    0.2515609 
H    -3.9508691    2.2417072    1.3558338 
H    -3.3303713    0.1884252   -0.7273870 
H    -2.7470065    0.2060151    0.8347924 
O    -1.5200979    2.0750062   -0.8897993 
O    -2.3207318    4.0497724    0.2022955 
H    -3.1086109    4.4274829    0.7058812 
