13
Energy =
C    -3.7793352    1.7603641    0.3122975 
C    -2.6092646    2.7562774    0.3067848 
C    -4.9314025    2.2644658   -0.5560891 
H    -5.2872317    3.2583523   -0.2087555 
H    -5.7784263    1.5458419   -0.5203144 
H    -4.5981047    2.3468062   -1.6155255 
N    -3.4225847    0.4157343   -0.1820776 
H    -4.1338583    1.6907777    1.3679932 
H    -2.3936756    0.3235926   -0.3702967 
H    -3.6588471   -0.3055949    0.5393520 
O    -1.6090437    2.6540721   -0.6528652 
O    -2.5520507    3.8093441    1.2197542 
H    -3.3624625    3.8400280    1.8194218 
