13
Energy =
C    -3.6163601    1.5710336    0.1855257 
C    -2.4236987    2.5162878    0.2833889 
C    -4.9652450    2.3212725    0.1522908 
H    -5.6022802    2.0104797    1.0076708 
H    -5.5310709    2.0963477   -0.7789725 
H    -4.8333574    3.4252029    0.1974828 
N    -3.5390649    0.6886152   -0.9904471 
H    -3.5721637    0.9439383    1.1090652 
H    -3.4436782    1.2740037   -1.8568999 
H    -2.6619980    0.1162680   -0.9362609 
O    -2.0172803    3.2570528   -0.8182997 
O    -1.7687623    2.6874003    1.4948318 
H    -2.3094398    3.3095604    2.0776460 
