13
Energy =
C    -3.8070594    1.8736686    0.3773792 
C    -2.5006683    2.6556891    0.3203267 
C    -4.7955883    2.2932086   -0.7383107 
H    -4.3611113    3.0774771   -1.3999928 
H    -5.7235845    2.7105389   -0.2912912 
H    -5.0866739    1.4403159   -1.3881391 
N    -3.5753000    0.4211976    0.3223470 
H    -4.2438026    2.1298540    1.3731912 
H    -4.4842057   -0.0828712    0.4546697 
H    -3.2075462    0.1580990   -0.6249014 
O    -2.3466816    3.8021872    1.0872799 
O    -1.4809791    2.2775362   -0.5426314 
H    -0.9417033    1.5541100   -0.0906137 
