13
Energy =
C    -3.8225015    1.7808450    0.2744643 
C    -2.6589858    2.7676840    0.4331784 
C    -4.9261625    2.3111253   -0.6754289 
H    -5.1199913    1.6206302   -1.5254498 
H    -4.6537350    3.2966590   -1.1185995 
H    -5.8826543    2.4415264   -0.1242619 
N    -3.3586252    0.4655951   -0.1924169 
H    -4.2451108    1.6490653    1.2982426 
H    -4.1668697   -0.1967856   -0.2657631 
H    -2.9317091    0.5550309   -1.1474660 
O    -1.6090307    2.7535036   -0.4781548 
O    -2.6710246    3.7507474    1.4241960 
H    -3.5106158    3.7235720    1.9821572 
