13
Energy =
C    -3.6325540    1.5860207    0.1984713 
C    -2.4289016    2.5172465    0.2946952 
C    -4.9671952    2.3530723    0.0796460 
H    -5.4938565    2.1051868   -0.8685569 
H    -4.8209846    3.4563223    0.0928263 
H    -5.6460185    2.0800293    0.9154580 
N    -3.5265284    0.6491384   -0.9319945 
H    -3.6326417    1.0021631    1.1510859 
H    -3.3858690    1.1923599   -1.8194968 
H    -2.6637740    0.0642466   -0.8165643 
O    -2.0234056    3.2610806   -0.8050826 
O    -1.7580535    2.6674998    1.5001431 
H    -2.2849548    3.2880795    2.0970452 
