13
Energy =
C    -3.6083087    1.6664718    0.3564830 
C    -2.5582703    2.7098016   -0.0003974 
C    -5.0593982    2.1841939    0.1423792 
H    -5.6615024    1.5536035   -0.5426491 
H    -5.0679171    3.2092839   -0.2933914 
H    -5.5964133    2.2295673    1.1137988 
N    -3.3594193    0.4079606   -0.3792947 
H    -3.4585184    1.4953722    1.4504659 
H    -3.0812896   -0.3482587    0.2896703 
H    -4.1846747    0.0545119   -0.9144532 
O    -2.5982493    3.3776372   -1.2209264 
O    -1.5543780    3.0222054    0.9082635 
H    -0.9447577    3.7115299    0.4877700 
