13
Energy =
C    -3.6522767    1.6371171    0.2260514 
C    -2.5014835    2.6345798    0.2911037 
C    -5.0161652    2.3178272   -0.0244680 
H    -5.7111231    2.1171526    0.8183537 
H    -5.4970982    1.9353758   -0.9514701 
H    -4.9191746    3.4215442   -0.1352672 
N    -3.4429545    0.6089654   -0.8068068 
H    -3.6761440    1.1502644    1.2314150 
H    -3.2822059    1.0765796   -1.7336388 
H    -2.5715795    0.0673499   -0.5944482 
O    -2.2941763    3.5412483   -0.7395938 
O    -1.6245200    2.6182214    1.3664747 
H    -0.9722873    1.8567192    1.2495492 
