13
Energy =
C    -3.7704362    1.6925980    0.2413838 
C    -2.5335300    2.5895647    0.3363368 
C    -5.0283205    2.4571655   -0.2115727 
H    -5.2287342    3.3151741    0.4695979 
H    -5.9179524    1.7903737   -0.1927904 
H    -4.9077968    2.8546251   -1.2424312 
N    -3.5546197    0.5367924   -0.6443675 
H    -3.9267773    1.3241035    1.2855391 
H    -4.3362139   -0.1500584   -0.5199420 
H    -3.5696780    0.8287460   -1.6504244 
O    -1.9871290    2.8541230    1.5863565 
O    -1.9629634    3.1916544   -0.7853302 
H    -2.4451816    2.9295990   -1.6295459 
