13
Energy =
C    -4.0618272    1.9001338    0.1953263 
C    -2.8286618    2.7839107    0.3500975 
C    -4.8339864    2.2067043   -1.0957550 
H    -5.7693629    1.6098015   -1.1418108 
H    -4.2095181    1.9482121   -1.9807320 
H    -5.0991212    3.2849477   -1.1511172 
N    -3.7084196    0.4732073    0.1896723 
H    -4.7125507    2.1297831    1.0731051 
H    -3.1882055    0.2439967    1.0706655 
H    -4.5843909   -0.1003277    0.2138421 
O    -1.9942684    3.0509961   -0.7325382 
O    -2.5183695    3.3145459    1.5979696 
H    -1.6657895    3.8547719    1.5259017 
