13
Energy =
C    -3.6148009    1.4873425   -0.0792862 
C    -2.3177780    2.2810070   -0.1078456 
C    -4.7835965    2.3250931    0.4684220 
H    -4.5441978    2.7007204    1.4878843 
H    -5.7087509    1.7137412    0.5315150 
H    -4.9739884    3.2029654   -0.1885313 
N    -3.9626648    0.9738918   -1.4127730 
H    -3.4205533    0.6269064    0.6043596 
H    -4.8619645    0.4401747   -1.3674814 
H    -4.1043963    1.7774985   -2.0729056 
O    -2.1669104    3.3609380   -0.9721304 
O    -1.2893913    1.9668478    0.7703408 
H    -0.5187464    2.5998646    0.5997587 
