13
Energy =
C    -3.5610416    1.6411953    0.2089695 
C    -2.4975546    2.7226732   -0.0225351 
C    -5.0093300    2.1769621    0.1270364 
H    -5.5941506    1.6432985   -0.6538617 
H    -5.0527764    3.2567384   -0.1350737 
H    -5.5281900    2.0409835    1.0990096 
N    -3.4389241    0.5239258   -0.7442926 
H    -3.3716686    1.2714238    1.2439998 
H    -2.4324062    0.2477489   -0.8563139 
H    -3.9327802   -0.3145668   -0.3574143 
O    -2.7827796    4.0634087    0.2064381 
O    -1.1827579    2.3643437   -0.2977729 
H    -0.7427250    2.0406653    0.5505983 
