13
Energy =
C    -3.9625323    1.8433587    0.2393042 
C    -2.8458724    2.8783604    0.1352793 
C    -5.1130532    2.1055855   -0.7603029 
H    -5.3133825    1.2144180   -1.3950213 
H    -4.8809018    2.9440030   -1.4540039 
H    -6.0493397    2.3593789   -0.2190388 
N    -3.4563499    0.4769173    0.0337083 
H    -4.3565090    1.9406681    1.2798462 
H    -2.6678830    0.2945309    0.7002284 
H    -4.2086234   -0.2079198    0.2832508 
O    -2.2573798    3.1800280   -1.0901553 
O    -2.3939505    3.5187900    1.2846896 
H    -1.6490321    4.1575477    1.0374963 
