13
Energy =
C    -3.6274991    1.6152228    0.3238354 
C    -2.4843101    2.6012761    0.1140473 
C    -4.9990366    2.2801540    0.1024479 
H    -5.8174052    1.5584269    0.3119627 
H    -5.0884862    2.6309216   -0.9513280 
H    -5.1257488    3.1569498    0.7739928 
N    -3.4779712    0.4435395   -0.5614890 
H    -3.5609312    1.2944180    1.3910925 
H    -3.3111804   -0.4182478    0.0097674 
H    -4.3263728    0.2622256   -1.1486267 
O    -2.3293890    3.2591549   -1.1005724 
O    -1.6268339    2.9101795    1.1638228 
H    -2.0820725    3.5677947    1.7786675 
