13
Energy =
C    -3.8341328    1.8480831    0.4350196 
C    -2.5876555    2.7169035    0.3646373 
C    -4.7254409    2.0439070   -0.8042500 
H    -5.0145489    3.1131129   -0.9078813 
H    -5.6525226    1.4386943   -0.7146610 
H    -4.1779374    1.7412664   -1.7250712 
N    -3.4704713    0.4256364    0.5916141 
H    -4.4023116    2.1985286    1.3304820 
H    -3.8362052    0.0700204    1.5067045 
H    -3.8878785   -0.1830949   -0.1521737 
O    -2.3544022    3.6833473    1.3344815 
O    -1.6703902    2.5560090   -0.6652962 
H    -1.0250356    1.8292993   -0.3933695 
