13
Energy =
C    -3.8961636    1.6963236    0.2760816 
C    -2.5725586    2.4040530    0.5329506 
C    -4.8806629    2.6006046   -0.4690057 
H    -5.8406350    2.0644285   -0.6266378 
H    -4.4635691    2.8827368   -1.4606974 
H    -5.0774850    3.5265701    0.1127212 
N    -3.7318894    0.4576828   -0.4994146 
H    -4.3267619    1.4500155    1.2754461 
H    -3.1763813    0.6614517   -1.3663683 
H    -3.1600598   -0.2182455    0.0610981 
O    -2.1302150    2.6096679    1.8333127 
O    -1.8015380    2.8645014   -0.5271732 
H    -0.9668220    3.2973685   -0.1521887 
