13
Energy =
C    -3.7395079    1.6751471    0.2528482 
C    -2.4886284    2.5571677    0.3666762 
C    -4.9831451    2.4526112   -0.2339180 
H    -5.7862521    2.4222949    0.5329432 
H    -5.3999616    2.0107264   -1.1656614 
H    -4.7568623    3.5208807   -0.4492014 
N    -3.5258258    0.5269743   -0.6418732 
H    -3.9608918    1.2922668    1.2761484 
H    -3.2084124    0.8728899   -1.5813593 
H    -2.7456109   -0.0669427   -0.2708790 
O    -2.1848431    3.4559051   -0.6488131 
O    -1.6069627    2.4398309    1.4414665 
H    -1.8787625    1.7163109    2.0894334 
