24
Energy =
C    -0.1766924    1.5275868    1.0932632 
C     0.0042784    2.5977413    0.2858693 
C     0.7640500    2.4849367   -0.8274152 
C     0.3952992    0.3357580    0.7850359 
C     1.1561949    0.2115518   -0.3389234 
C     1.3392119    1.2965513   -1.1429122 
O    -0.5826411    3.8176966    0.6057794 
H    -1.5127836    3.8838634    0.2068756 
H     1.9487597    1.2218791   -2.0398960 
H     0.2410104   -0.5137327    1.4451051 
H    -0.7786567    1.6368479    1.9888926 
H     0.9102972    3.3543150   -1.4600501 
C     1.7942215   -1.1143723   -0.6965118 
C     1.0757116   -1.8098004   -1.8806848 
H     1.8108995   -1.8043567    0.1784494 
H     2.8617845   -0.9291752   -0.9533445 
C     1.9315112   -2.9447382   -2.4247714 
O     2.0513474   -4.1345443   -1.7200628 
O     2.6685685   -2.7706317   -3.5880282 
H     3.4728510   -2.1938803   -3.3920512 
N    -0.2913993   -2.2508110   -1.5039726 
H     0.9867586   -1.0971866   -2.7329077 
H    -0.3824493   -3.2963218   -1.5517760 
H    -0.5392238   -1.9951323   -0.5212028 
