24
Energy =
C    -0.7175362    1.7557679   -0.4379027 
C    -0.0570105    2.7827411   -1.0254594 
C     1.2605076    2.6320495   -1.3171588 
C    -0.0844227    0.5715698   -0.1378536 
C     1.2396717    0.4455733   -0.4333870 
C     1.9015935    1.4759941   -1.0261713 
O    -0.7405271    3.9847889   -1.3152020 
H    -0.1542212    4.6659265   -1.7706841 
H     2.9494262    1.3772278   -1.2794215 
H    -1.8305188   -1.6071161    1.3482900 
H    -1.7686320    1.8689338   -0.2046905 
H     1.8071203    3.4370242   -1.7879327 
C     1.9387312   -0.8586415   -0.1729757 
C     1.2344158   -2.0174024   -0.9121418 
H     1.9282606   -1.0429838    0.9218408 
H     2.9974900   -0.8143426   -0.4905823 
C    -0.1169204   -2.2808149   -0.2704559 
O    -0.3391940   -3.4485834    0.4627210 
O    -1.1342935   -1.3075080   -0.2244732 
H    -1.0328717   -0.4538029    0.9210240 
N     1.1172027   -1.7499801   -2.3608452 
H     1.8369152   -2.9359839   -0.7712573 
H     0.3600942   -1.0169498   -2.4389304 
H     1.9849052   -1.2726195   -2.6868639 
