24
Energy =
C     1.0355209    2.3424124    0.8823515 
C    -0.3129137    2.2932804    0.8190110 
C    -0.9187912    1.3826356    0.0264073 
C     1.7843045    1.4704564    0.1613215 
C     1.1891182    0.5343616   -0.6331770 
C    -0.1784851    0.5053875   -0.6986523 
O    -1.0778099    3.1863355    1.5625751 
H    -1.2822134    2.8076319    2.4806090 
H    -0.7087828   -0.1998207   -1.3249816 
H     2.8684884    1.5319454    0.2209095 
H     1.5089575    3.0906440    1.5091129 
H    -2.0024368    1.3676748   -0.0296014 
C     2.0998281   -0.4035850   -1.4222552 
C     1.4340781   -1.5988859   -2.1622997 
H     2.8414766   -0.8141201   -0.7018249 
H     2.6701732    0.2015289   -2.1646088 
C     0.5816431   -1.1608249   -3.3458349 
O     0.7702733    0.0706802   -3.9592565 
O    -0.4129002   -1.9999281   -3.8244129 
H     0.0261977   -2.6960395   -4.4090462 
N     2.4589622   -2.5610511   -2.6227790 
H     0.7426521   -2.1086384   -1.4517234 
H     3.4161517   -2.3489649   -2.2547183 
H     2.2153908   -3.5246080   -2.2919385 
