24
Energy =
C    -0.0304187    2.2318514   -2.0974457 
C    -0.6998368    2.6040049   -0.9828144 
C    -0.4859112    1.9543430    0.1841302 
C     0.8620918    1.2127014   -2.0480088 
C     1.0896684    0.5553344   -0.8749524 
C     0.4086871    0.9351893    0.2431579 
O    -1.6164042    3.6490473   -1.0381880 
H    -1.1592944    4.5384810   -0.8695618 
H     0.5650864    0.4190327    1.1883539 
H     1.3871263    0.9254008   -2.9550823 
H    -0.2193821    2.7512791   -3.0297021 
H    -1.0414955    2.2517795    1.0677454 
C     2.0812701   -0.5906849   -0.8177912 
C     1.4242149   -1.9905663   -0.9219474 
H     2.6577617   -0.5248973    0.1339145 
H     2.8352736   -0.4781965   -1.6283657 
C     0.5245885   -2.3100234    0.2750168 
O     1.1157336   -2.8366438    1.4170528 
O    -0.8357595   -2.0018018    0.3152312 
H    -1.1657914   -1.6178748   -0.5554944 
N     0.7683494   -2.1793329   -2.2335343 
H     2.2384575   -2.7494597   -0.8315164 
H     0.0686554   -1.4240721   -2.4203234 
H     1.4787193   -2.1143231   -3.0017171 
