24
Energy =
C     0.5138740    1.8999989    1.2080141 
C    -0.7977012    1.6395159    1.0154363 
C    -1.1821996    0.8067284    0.0238011 
C     1.4485319    1.3176032    0.4153295 
C     1.0786606    0.4618004   -0.5808877 
C    -0.2549616    0.2193297   -0.7749496 
O    -1.7533187    2.2371912    1.8308473 
H    -1.9395673    1.6643467    2.6466120 
H    -0.6107437   -0.4359230   -1.5600842 
H     2.4985219    1.5475238    0.5826082 
H     0.8070536    2.5845822    1.9969360 
H    -2.2400848    0.6200353   -0.1303429 
C     2.1828282   -0.1396275   -1.4457589 
C     1.7958998   -1.3129080   -2.3759438 
H     2.9871752   -0.4960489   -0.7648015 
H     2.6401461    0.6692274   -2.0614113 
C     1.0130842   -0.8276191   -3.5905410 
O     1.4950056    0.1980296   -4.3950958 
O    -0.2069097   -1.4131856   -3.9014629 
H    -0.5599081   -0.9860124   -4.7494038 
N     3.0326105   -2.0069918   -2.7794730 
H     1.1392387   -2.0283637   -1.8276632 
H     3.3873634   -2.5752622   -1.9749879 
H     2.8179949   -2.6913403   -3.5455395 
