24
Energy =
C     0.1707000    2.2775703   -0.5576839 
C     0.9547778    2.6601866    0.4760472 
C     1.9577311    1.8414321    0.8997112 
C     0.3858414    1.0845702   -1.1615744 
C     1.3722932    0.2535754   -0.7409778 
C     2.1695009    0.6445272    0.2900060 
O     0.7118726    3.8963293    1.0827439 
H     1.3393244    4.1155280    1.8485819 
H     2.9795252    0.0055643    0.6332413 
H    -0.2414685    0.6593639   -2.0691096 
H    -0.6243906    2.9331651   -0.8958574 
H     2.5932308    2.1451782    1.7241130 
C     1.6130579   -1.0669570   -1.4680373 
C     0.3141271   -1.7692219   -1.9540426 
H     2.1474494   -1.7663289   -0.7859651 
H     2.2879168   -0.8938753   -2.3345078 
C    -0.3678702   -1.0140789   -3.1337595 
O    -0.8360001    0.2771412   -2.9140400 
O    -0.5062875   -1.4969182   -4.4267702 
H     0.1089117   -2.2660766   -4.5989634 
N     0.6215540   -3.2016425   -2.1601060 
H    -0.4273869   -1.6946463   -1.1229656 
H    -0.0122364   -3.7960024   -1.5703250 
H     0.5298998   -3.5449517   -3.1331348 
