24
Energy =
C     0.3365131    2.1690854   -0.1936724 
C     1.0850348    2.2945032    0.9349503 
C     1.9915161    1.3365728    1.2474075 
C     0.5063123    1.0874121   -0.9910849 
C     1.3989642    0.1189035   -0.6797258 
C     2.1559869    0.2525396    0.4428092 
O     0.9459950    3.3929538    1.7888564 
H     0.2523881    4.0688649    1.4861631 
H     2.8963666   -0.4995798    0.7037069 
H    -0.0926099    0.8650021   -1.9822004 
H    -0.3932896    2.9249148   -0.4612501 
H     2.5857154    1.4530155    2.1475303 
C     1.5899562   -1.0526090   -1.6334760 
C     0.2651621   -1.6172075   -2.2314799 
H     2.1070556   -1.8818606   -1.0992448 
H     2.2650751   -0.7419694   -2.4618205 
C    -0.4239936   -0.6618732   -3.2507608 
O    -0.6580495    0.6721483   -2.9050294 
O    -0.9133099   -1.0795315   -4.4895001 
H    -0.6996270   -2.0359676   -4.7181047 
N     0.5553449   -2.9541823   -2.7700811 
H    -0.4604538   -1.7378495   -1.3961484 
H    -0.3358738   -3.4620369   -2.9854626 
H     1.1235811   -2.8687508   -3.6445413 
