24
Energy =
C    -0.9346210    1.6785607   -1.7968756 
C    -1.0434693    2.3207500   -0.6030861 
C    -0.1669171    2.0416090    0.3883131 
C     0.0495100    0.7647102   -1.9925824 
C     0.9385796    0.4906133   -0.9980218 
C     0.8196674    1.1296330    0.1976052 
O    -2.0458710    3.2677237   -0.3685742 
H    -2.6641461    3.4194533   -1.1580287 
H     1.5072470    0.9083580    1.0098877 
H     0.1194277    0.2534171   -2.9495619 
H    -1.6359092    1.8920607   -2.5961724 
H    -0.2685309    2.5548306    1.3381763 
C     2.0219603   -0.5441055   -1.2067811 
C     1.5316729   -1.9569570   -0.8336929 
H     2.9232329   -0.2884406   -0.6050695 
H     2.3510268   -0.5264377   -2.2711494 
C     2.5084444   -3.0137469   -1.3194620 
O     3.6701101   -3.2910211   -0.6082499 
O     2.2663641   -3.6772170   -2.5136481 
H     3.0235512   -4.3273903   -2.6851694 
N     1.3011366   -2.0279116    0.6220371 
H     0.5769101   -2.1641290   -1.3728211 
H     0.9372088   -2.9799838    0.8666576 
H     2.2184798   -1.9353829    1.1220050 
