24
Energy =
C     1.3258947    2.7806021   -0.8520205 
C    -0.0177234    2.9162614   -0.8568732 
C    -0.8025043    1.8130400   -0.7491530 
C     1.8927726    1.5528104   -0.7440234 
C     1.1160262    0.4355137   -0.6497687 
C    -0.2416204    0.5818222   -0.6401766 
O    -0.5651534    4.1985856   -0.9698630 
H    -1.5791858    4.2163262   -0.9673431 
H    -0.9023047   -0.2664557   -0.5509468 
H     2.9774782    1.4746637   -0.7326490 
H     1.9427300    3.6692575   -0.9321857 
H    -1.8827215    1.9127202   -0.7466485 
C     1.8105843   -0.9124924   -0.4970186 
C     0.9938178   -2.1794470   -0.9000809 
H     2.1891189   -1.0118873    0.5439548 
H     2.7278209   -0.8846279   -1.1312260 
C     1.9155832   -3.3017837   -1.3453439 
O     3.0628489   -3.6085142   -0.6198217 
O     1.6311291   -4.0253916   -2.4957554 
H     2.3387835   -4.7396473   -2.6064266 
N     0.1378532   -2.6540879    0.2076309 
H     0.3733608   -1.9524979   -1.7983601 
H     0.4567455   -2.3090349    1.1430887 
H    -0.8590601   -2.3763679    0.0663677 
