24
Energy =
C     0.2265375    2.5292060   -1.5508210 
C    -0.2728826    2.7220800   -0.3015280 
C    -0.0501434    1.7954481    0.6574336 
C     0.9436694    1.4133130   -1.8339163 
C     1.1665554    0.4746026   -0.8707567 
C     0.6687140    0.6782685    0.3810613 
O    -1.0120620    3.8639517    0.0244916 
H    -1.1547253    4.5004482   -0.7520386 
H     0.8350643   -0.0533139    1.1678697 
H     1.3396369    1.2816262   -2.8369019 
H     0.0553383    3.2671993   -2.3264818 
H    -0.4572267    1.9591364    1.6493309 
C     1.9684801   -0.7772304   -1.1810153 
C     1.0945264   -2.0242499   -1.4850727 
H     2.6326660   -1.0038630   -0.3158302 
H     2.6506529   -0.5944625   -2.0404798 
C     0.1911613   -2.3964816   -0.3207806 
O    -1.1166872   -1.9282579   -0.2348120 
O     0.7053282   -3.1572823    0.7235799 
H    -0.0273116   -3.3122671    1.4044788 
N     0.3339951   -1.8771714   -2.7457301 
H     1.7879313   -2.8933065   -1.5752195 
H     0.4867961   -0.9520022   -3.2064372 
H     0.6306201   -2.6105156   -3.4315083 
