24
Energy =
C    -0.8389056    1.8824727   -1.3705931 
C    -0.9038497    2.3381307   -0.0911972 
C    -0.0199721    1.8831666    0.8255789 
C     0.1068922    0.9759336   -1.7258560 
C     0.9975133    0.5171819   -0.8036371 
C     0.9282087    0.9772945    0.4765024 
O    -1.8662865    3.2709365    0.3083250 
H    -2.4942504    3.5696253   -0.4294875 
H     1.6269413    0.6223446    1.2305331 
H     0.1471277    0.6208856   -2.7530083 
H    -1.5443708    2.2436909   -2.1100068 
H    -0.0803884    2.2527358    1.8443036 
C     2.0474651   -0.4994445   -1.2010770 
C     1.4624858   -1.9248374   -1.3958923 
H     2.8671117   -0.5460114   -0.4484501 
H     2.5227529   -0.1454306   -2.1443158 
C     2.4785264   -2.8498707   -2.0817893 
O     3.5848832   -2.3062442   -2.7257803 
O     2.2886156   -4.2274718   -2.1764745 
H     1.4995321   -4.5273328   -1.6283142 
N     1.0336201   -2.4701260   -0.0942751 
H     0.5891706   -1.8699540   -2.0845543 
H     0.4502793   -1.7703650    0.4227474 
H     0.3762644   -3.2639408   -0.2649390 
