24
Energy =
C     0.7757206    2.6107212   -0.1281773 
C    -0.2403440    2.3166591    0.7142368 
C    -0.5439907    1.0169741    0.9718483 
C     1.4943150    1.6184664   -0.7120359 
C     1.1941637    0.3150266   -0.4600250 
C     0.1707766    0.0208709    0.3885533 
O    -0.9534162    3.3658134    1.3042383 
H    -1.7172889    3.0680792    1.8997639 
H    -0.0769938   -1.0154963    0.6006900 
H     2.2995618    1.8758761   -1.3959755 
H     1.0043730    3.6503465   -0.3354633 
H    -1.3581687    0.7746078    1.6446687 
C     1.9941595   -0.8023480   -1.0996245 
C     1.1953836   -1.5642672   -2.1982997 
H     2.3035012   -1.4962460   -0.2889623 
H     2.9348684   -0.4134128   -1.5539502 
C     1.0279616   -0.7575603   -3.4906339 
O     1.2486517    0.6092837   -3.5129991 
O     0.5030762   -1.3405604   -4.6289795 
H     0.7987184   -2.3091455   -4.5539329 
N     1.7712266   -2.9144104   -2.4131771 
H     0.1469076   -1.7067800   -1.8654319 
H     2.1035889   -3.0406059   -3.3888889 
H     2.6056542   -3.1154483   -1.8015265 
