24
Energy =
C    -1.2786472    0.7800096    0.3305814 
C    -1.2209314    1.9787581   -0.2946881 
C    -0.1168497    2.3242992   -0.9960263 
C    -0.2269963   -0.0756813    0.2636611 
C     0.8932974    0.2707317   -0.4291174 
C     0.9391773    1.4749669   -1.0661329 
O    -2.3029433    2.8500185   -0.2287338 
H    -2.2271131    3.4580442    0.5794715 
H     1.8166509    1.7606882   -1.6434867 
H    -0.2897673   -1.0390445    0.7637596 
H    -2.1765933    0.5101740    0.8765091 
H    -0.0884792    3.2814826   -1.5067626 
C     2.0536858   -0.6950768   -0.5321715 
C     1.8519383   -1.7141667   -1.6777344 
H     2.1685877   -1.2361247    0.4330779 
H     3.0065398   -0.1392734   -0.6910161 
C     1.7352669   -1.0289328   -3.0335657 
O     2.7545234   -0.2020075   -3.4920826 
O     0.5699621   -1.1388903   -3.7812732 
H    -0.1194231   -0.5050918   -3.4060813 
N     2.9503566   -2.6940616   -1.6715170 
H     0.8948919   -2.2613529   -1.5181997 
H     3.8651450   -2.2047017   -1.8273732 
H     2.9985955   -3.1751687   -0.7430843 
