24
Energy =
C    -0.7772063    1.5620759    0.4197752 
C    -0.2605906    2.6750287   -0.1500483 
C     0.9073493    2.6077433   -0.8293834 
C    -0.1201791    0.3780535    0.3222280 
C     1.0636076    0.3052072   -0.3474287 
C     1.5695717    1.4271111   -0.9324444 
O    -0.9363921    3.8868673   -0.0476140 
H    -0.6519337    4.3854605    0.7881551 
H     2.5028626    1.3877417   -1.4891303 
H    -0.5533296   -0.5135583    0.7690196 
H    -1.7244778    1.6274310    0.9438836 
H     1.3027168    3.5043912   -1.2951199 
C     1.7864383   -1.0175152   -0.4795038 
C     1.2541285   -1.8357044   -1.6719173 
H     1.6811254   -1.6098667    0.4571095 
H     2.8789751   -0.8367955   -0.6013238 
C     2.1969274   -2.9812999   -2.0030835 
O     2.5351056   -3.9134090   -1.0317821 
O     2.7261786   -3.1085692   -3.2789925 
H     2.0287109   -3.5131851   -3.8864661 
N    -0.1100606   -2.3078895   -1.3682380 
H     1.2329738   -1.1801650   -2.5746906 
H    -0.5291372   -2.7257727   -2.2325245 
H    -0.0643595   -3.0800298   -0.6581090 
