24
Energy =
C     0.2957215    1.7670855    1.0821209 
C     0.1282956    2.7648035    0.1852187 
C     0.4965001    2.5849641   -1.1031191 
C     0.8244319    0.5797065    0.6909533 
C     1.1853050    0.3818046   -0.6093674 
C     1.0241127    1.3999043   -1.5023984 
O    -0.4120856    3.9808245    0.5903041 
H    -1.4231877    3.9671702    0.5080374 
H     1.3137907    1.2738082   -2.5413279 
H     0.9523620   -0.2099991    1.4270812 
H     0.0042017    1.9295153    2.1142538 
H     0.3663112    3.3971836   -1.8105879 
C     1.7704577   -0.9481432   -1.0578867 
C     0.7365787   -1.8840223   -1.7460303 
H     2.2288430   -1.4787768   -0.1926396 
H     2.6086766   -0.7540123   -1.7625180 
C    -0.3218794   -2.4348288   -0.7802758 
O    -0.1978370   -2.2206979    0.5896455 
O    -1.3505144   -3.2757307   -1.2111018 
H    -1.3100732   -3.4672035   -2.2005866 
N     0.1359109   -1.1955261   -2.9006821 
H     1.2870740   -2.7797429   -2.1108993 
H     0.8966421   -0.9203471   -3.5655119 
H    -0.4536016   -1.8680014   -3.4393878 
