24
Energy =
C    -0.5410423    2.1524412   -1.5148733 
C    -1.2743413    2.1140304   -0.3791052 
C    -0.9156204    1.2891773    0.6307421 
C     0.5671022    1.3762474   -1.6388100 
C     0.9428330    0.5504828   -0.6189955 
C     0.1872299    0.5064134    0.5139778 
O    -2.4046031    2.9147419   -0.2543638 
H    -2.1635745    3.8216918    0.1295365 
H     0.4553207   -0.1565486    1.3331481 
H     1.1358157    1.4010886   -2.5708091 
H    -0.8603548    2.8000654   -2.3254497 
H    -1.5234103    1.2555073    1.5291463 
C     2.1693464   -0.3314905   -0.7524650 
C     1.9036483   -1.5718696   -1.6303620 
H     2.5060068   -0.6764253    0.2511875 
H     3.0164754    0.2588219   -1.1627977 
C     1.5888124   -1.1948666   -3.0741414 
O     0.3652901   -1.5561270   -3.6136500 
O     2.4366325   -0.3847580   -3.8305555 
H     3.3701681   -0.3483255   -3.4520878 
N     3.0498801   -2.4910670   -1.5176804 
H     0.9894910   -2.0871847   -1.2466322 
H     2.8322616   -3.3688355   -2.0500817 
H     3.8960351   -2.0772144   -1.9737741 
