24
Energy =
C    -0.3414492    2.2570688   -1.5129816 
C    -0.8239663    2.4390691   -0.2546896 
C    -0.3633863    1.6672122    0.7557628 
C     0.5987547    1.3079600   -1.7524280 
C     1.0707525    0.5375388   -0.7333718 
C     0.5780254    0.7182115    0.5222982 
O    -1.7923517    3.4085629    0.0262789 
H    -2.0911634    3.9423076   -0.7826509 
H     0.9264151    0.0978147    1.3440344 
H     0.9695971    1.1692040   -2.7647969 
H    -0.7085055    2.8680063   -2.3304305 
H    -0.7624043    1.8160743    1.7530767 
C     2.1026502   -0.5360931   -1.0017131 
C     1.4375779   -1.8932821   -1.3322265 
H     2.7759609   -0.6508852   -0.1224477 
H     2.7607767   -0.2161312   -1.8421992 
C     2.4287601   -2.9156614   -1.8889268 
O     3.7794049   -2.6025828   -1.9819348 
O     2.0077225   -4.1642561   -2.3396207 
H     1.0299154   -4.3098099   -2.1354071 
N     0.7496727   -2.3964413   -0.1349634 
H     0.6854044   -1.7320231   -2.1368593 
H     0.1462633   -3.2045190   -0.4068831 
H     1.4477475   -2.7348540    0.5731277 
