24
Energy =
C    -0.3698625    1.9383699   -0.1822268 
C     0.3519659    2.8838571   -0.8405145 
C     1.5673875    2.5663222   -1.3379390 
C     0.1203117    0.6779060   -0.0187383 
C     1.3474757    0.3632348   -0.5279918 
C     2.0651953    1.3140616   -1.1885924 
O    -0.1305141    4.1864680   -1.0190239 
H    -1.0562374    4.3376625   -0.6358518 
H     3.0372114    1.0776830   -1.6109893 
H    -1.6581993   -1.4132238    1.5594743 
H    -1.3475634    2.1791992    0.2136264 
H     2.1363596    3.3238814   -1.8653620 
C     1.8769980   -1.0452025   -0.3955487 
C     0.9566957   -2.0763792   -1.0760712 
H     1.9855918   -1.2852107    0.6841964 
H     2.8894171   -1.1312859   -0.8473950 
C    -0.3915978   -2.1616556   -0.3753523 
O    -0.8386161   -3.3760801    0.1315960 
O    -1.1583545   -1.0103917   -0.1002619 
H    -0.7908456   -0.3355154    1.0775663 
N     0.8423341   -1.7775321   -2.5155745 
H     1.4341443   -3.0755406   -0.9610694 
H     0.3116575   -2.5504277   -2.9818805 
H     0.2639875   -0.9098852   -2.6403354 
