15
Energy =
C    -3.8133122    2.7355288   -0.1320169 
C    -2.7382244    1.7961138    0.4537955 
H    -4.1289720    3.4756815    0.6329843 
H    -4.7202288    2.1593211   -0.4211877 
H    -3.5135465    3.2881848   -1.0331061 
N    -3.3662773    0.4699536    0.5973904 
H    -3.5138829    0.2601219    1.6120955 
H    -2.7532927   -0.2946468    0.2265698 
C    -1.3896902    1.7160319   -0.2811995 
H    -2.4629894    2.1856550    1.4654469 
N    -0.9983902    2.5766250   -1.3540677 
N    -0.3941766    0.8420634    0.2433055 
H     0.4142637    1.4458744    0.5098543 
H    -0.0706259    0.2526815   -0.5555265 
H    -1.5673458    3.3344293   -1.7776710 
