15
 energy: -2.401371946828 gnorm: 0.000679809385 xtb: 6.6.0 (2ccbbd7)
C           -3.85812145218545        2.57306506088918        0.11625721971492
C           -2.74377262455236        1.56303156539648        0.34393291993515
H           -4.82407585642490        2.16696594526395        0.41809730663648
H           -3.92800260064483        2.83686868430172       -0.93834122264356
H           -3.68244076217591        3.49286950460887        0.67583081652654
N           -3.00254088506184        0.30693773262466       -0.35313051138849
H           -2.21187776925622       -0.31460953549715       -0.24066734018884
H           -3.09413139514275        0.48259058808438       -1.34390409506116
C           -1.40016195115157        2.12516375320856       -0.04872396792919
H           -2.70277521589147        1.32504642996934        1.41989114921076
N           -1.16043352638042        2.41687002795599       -1.26367188347490
N           -0.44824571310029        2.30723330807136        0.94151231511162
H           -0.68937521292049        2.35220526983197        1.92212203271623
H            0.37119842716979        2.85299964252815        0.72916650981268
H           -1.84422091870122        2.28043571131933       -1.96070625439796
