15
Energy =
C    -3.7845782    2.7025360    0.1889972 
C    -2.7371617    1.5994298    0.4052468 
H    -4.1959491    3.0434552    1.1616813 
H    -4.6287422    2.3309374   -0.4313099 
H    -3.3594812    3.5823072   -0.3396644 
N    -3.2281054    0.3710616   -0.2411775 
H    -3.4495360   -0.3453133    0.4884882 
H    -2.4999377   -0.0505935   -0.8654273 
C    -1.3639097    2.0186204   -0.1118238 
H    -2.6342140    1.4285348    1.5045555 
N    -0.2310086    2.0455209    0.7519249 
N    -1.1785624    2.3586654   -1.4814890 
H    -0.4975522    1.6649967   -1.8601820 
H    -0.6880469    3.2796631   -1.4882294 
H    -0.3042770    1.7875976    1.7595182 
