15
Energy =
C    -3.9552904    2.2960356   -0.2212698 
C    -2.6813563    1.6692008    0.3775009 
H    -4.5886892    1.5216883   -0.7089026 
H    -3.7460642    3.0543047   -1.0005215 
H    -4.5639313    2.7699105    0.5772261 
N    -2.8594028    0.2077157    0.2973728 
H    -3.0679072   -0.1776270    1.2482788 
H    -2.0409797   -0.3141106   -0.0701999 
C    -1.3904464    2.2406636   -0.2559057 
H    -2.6176463    1.9723156    1.4519865 
N    -0.2727007    1.4425868   -0.6481962 
N    -1.1748769    3.6535554   -0.2502220 
H    -1.5028220    4.0399980    0.6614392 
H    -1.7402084    4.0707872   -1.0188659 
H    -0.1735217    0.4124035   -0.5711678 
