15
Energy =
C    -3.9207548    2.4197515    0.3757137 
C    -2.6260947    1.5825542    0.4044417 
H    -3.8265405    3.3502323   -0.2190316 
H    -4.2205856    2.6994181    1.4066496 
H    -4.7569577    1.8436895   -0.0762885 
N    -2.9687396    0.2345019   -0.0820503 
H    -3.0307042   -0.4268869    0.7266759 
H    -2.2497392   -0.1456999   -0.7413459 
C    -1.4570940    2.2010400   -0.3697882 
H    -2.2697052    1.5271438    1.4622412 
N    -0.2016932    1.5254526   -0.4046764 
N    -1.4710670    3.5715756   -0.7595592 
H    -1.0439964    3.6049885   -1.7117335 
H    -0.8048765    4.0614147   -0.1227872 
H    -0.0865767    0.5728289    0.0033694 
