15
Energy =
C    -3.9257327    2.5408329   -0.2632643 
C    -2.9040417    1.5737633    0.3595770 
H    -3.4448262    3.4314232   -0.7191895 
H    -4.6331303    2.8994597    0.5139396 
H    -4.5275807    2.0360584   -1.0498543 
N    -3.0503483    0.2578016   -0.2712961 
H    -2.4203306   -0.4204454    0.2183362 
H    -2.7045363    0.3096597   -1.2597999 
C    -1.4729676    2.0927602    0.2565227 
H    -3.1473793    1.4687678    1.4439441 
N    -0.7499914    2.4639231    1.4290984 
N    -0.8127793    2.1531851   -1.0086563 
H     0.1905913    2.3802270   -0.8277365 
H    -1.2099309    2.9740301   -1.5135328 
H    -1.1831319    2.4134651    2.3762040 
