15
Energy =
C    -3.9223639    2.3600118    0.1232254 
C    -2.6827597    1.5604918    0.5076428 
H    -4.0474720    2.3727991   -0.9796644 
H    -3.8480873    3.4038750    0.4951524 
H    -4.8238947    1.8846680    0.5644071 
N    -2.8535968    0.1972710   -0.0194378 
H    -2.7493800   -0.4896097    0.7634784 
H    -2.1051460   -0.0455292   -0.7110381 
C    -1.4122327    2.2348479    0.0082406 
H    -2.6163463    1.5370936    1.6248543 
N    -1.1621864    2.3992479   -1.3862264 
N    -0.4725568    2.7558511    0.9445472 
H    -0.8862990    3.6394810    1.3141584 
H     0.3777786    3.0371908    0.4065099 
H    -1.8399407    2.0397755   -2.0920313 
