15
Energy =
C    -3.9984985    2.1421003   -0.2362747 
C    -2.7004389    1.6540269    0.4554189 
H    -4.5807071    1.3334889   -0.7211539 
H    -3.7808607    2.8927542   -1.0284260 
H    -4.6636298    2.6306052    0.5067876 
N    -2.5226943    0.1955663    0.3309328 
H    -3.3005884   -0.2794213   -0.1797987 
H    -2.4856915   -0.2348527    1.2840777 
C    -1.4732006    2.3647017   -0.0950653 
H    -2.7721080    1.9255450    1.5366366 
N    -0.6561697    3.1752146    0.7495108 
N    -1.1275999    2.2394620   -1.4742177 
H    -0.8772405    1.2361583   -1.6124064 
H    -0.2510631    2.7850493   -1.6280448 
H    -0.8678292    3.2974592    1.7628172 
