15
Energy =
C    -3.9621598    2.1662420   -0.5581418 
C    -2.8306446    1.7574957    0.4299253 
H    -4.5031412    1.3022739   -0.9932865 
H    -3.6266053    2.7518904   -1.4255241 
H    -4.7205562    2.7782524   -0.0247897 
N    -2.8440692    0.2994873    0.6667027 
H    -3.5659263   -0.2240486    0.1224960 
H    -3.0302347    0.1082186    1.6790083 
C    -1.4004502    2.2033681    0.0974305 
H    -3.0377225    2.2818166    1.3959807 
N    -1.0621880    3.1027927   -0.9637856 
N    -0.3550248    1.8191698    0.9921949 
H     0.5319837    2.2524986    0.6528660 
H    -0.2384631    0.7886925    0.8732994 
H    -1.7255823    3.5683613   -1.6114669 
