15
Energy =
C    -3.6885064    2.6787584   -0.3884942 
C    -2.8181627    1.6200459    0.3237609 
H    -4.3334294    2.2311732   -1.1741860 
H    -3.0735006    3.4709227   -0.8683778 
H    -4.3533602    3.1798683    0.3469016 
N    -3.0584427    0.2935802   -0.2549856 
H    -2.8451210    0.3058449   -1.2800449 
H    -4.0689947    0.0419682   -0.1461984 
C    -1.3387968    1.9616419    0.2868331 
H    -3.0950688    1.5931240    1.4077905 
N    -0.6547787    2.1500525   -0.9515120 
N    -0.6053096    2.0612156    1.5059785 
H     0.3565044    2.3900978    1.2654112 
H    -0.4962177    1.0837459    1.8558117 
H    -1.1617396    2.0625219   -1.8573888 
