15
Energy =
C    -3.7414799    2.7196226    0.1746873 
C    -2.7036693    1.6389940    0.4696154 
H    -3.9405921    2.7760104   -0.9171157 
H    -3.3787109    3.7105527    0.5205492 
H    -4.6928782    2.4798997    0.6949509 
N    -3.2612638    0.3414256    0.0763961 
H    -2.5547094   -0.4071857    0.2685873 
H    -3.4377244    0.3336806   -0.9562379 
C    -1.3852836    1.9327171   -0.2336085 
H    -2.5167428    1.6306937    1.5699989 
N    -0.1882425    2.1232972    0.5177555 
N    -1.3303267    2.0455916   -1.6548249 
H    -1.3112545    1.0706847   -2.0238010 
H    -0.4036898    2.4626411   -1.8964053 
H    -0.1781448    2.0612680    1.5585268 
