15
Energy =
C    -3.7112583    2.8870091   -0.1943182 
C    -2.8039469    1.8561279    0.5015075 
H    -4.1023435    3.6127455    0.5496636 
H    -4.5883163    2.3990603   -0.6719346 
H    -3.1715387    3.4653130   -0.9747953 
N    -3.3864853    0.5196209    0.3357730 
H    -2.8133726   -0.1725964    0.8736887 
H    -3.3345525    0.2317052   -0.6694853 
C    -1.3672487    1.9118808    0.0031310 
H    -2.7702208    2.1001926    1.5932609 
N    -1.0559840    1.7197055   -1.3759926 
N    -0.3046285    2.1171808    0.9314909 
H     0.5725946    2.2478795    0.3790633 
H    -0.1896731    1.2198140    1.4514514 
H    -1.8115716    1.5660078   -2.0772545 
