15
Energy =
C    -3.8894773    2.5584980    0.0607801 
C    -2.7543540    1.5649376    0.3380530 
H    -3.7417104    3.4863449    0.6540015 
H    -4.8687424    2.1135326    0.3356467 
H    -3.9018512    2.8330640   -1.0168707 
N    -2.9379111    0.3369480   -0.4536423 
H    -3.8157627    0.3551146   -1.0243148 
H    -3.0164812   -0.4847444    0.1895468 
C    -1.4031392    2.1876326    0.0261095 
H    -2.7726569    1.3216581    1.4277614 
N    -0.4131670    2.3309346    1.0441091 
N    -1.1122737    2.6573853   -1.2900741 
H    -1.0968354    1.8075418   -1.8953533 
H    -0.1372167    3.0300909   -1.2822300 
H    -0.5796391    1.9986708    2.0176325 
