15
Energy =
C    -3.7708658    2.6656389    0.1317529 
C    -2.7203844    1.5841032    0.4203899 
H    -3.4679559    3.6290783    0.5969610 
H    -4.7523580    2.3662775    0.5574638 
H    -3.8881350    2.8234144   -0.9609358 
N    -3.1212034    0.2991952   -0.1869708 
H    -2.4157336   -0.0334721   -0.8865513 
H    -4.0320698    0.3660302   -0.6991840 
C    -1.3342828    2.0306807   -0.0203908 
H    -2.6609092    1.4446621    1.5286323 
N    -1.0504310    2.3140469   -1.3888512 
N    -0.2889286    2.1474189    0.9411618 
H     0.5227368    2.6004168    0.4639925 
H     0.0129018    1.1728581    1.1607845 
H    -1.7947248    2.2324535   -2.1137071 
