15
Energy =
C    -3.9270615    2.1018126   -0.3044988 
C    -2.6849054    1.6463676    0.4835884 
H    -4.5749259    2.7356679    0.3370375 
H    -4.5319209    1.2360043   -0.6508157 
H    -3.6620679    2.6983732   -1.2033281 
N    -2.6082587    0.1821314    0.4484130 
H    -3.4420860   -0.2132504    0.9442204 
H    -1.7782653   -0.1255359    1.0093608 
C    -1.4072888    2.2753553   -0.0663858 
H    -2.7929476    1.9820703    1.5443677 
N    -0.7699959    3.3419874    0.6283353 
N    -0.8142789    1.8097076   -1.2771147 
H    -1.5557946    1.8230128   -2.0081120 
H    -0.5656996    0.8091334   -1.1210457 
H    -1.1626311    3.7318564    1.5112033 
