15
Energy =
C    -3.8728563    2.4099702    0.0990252 
C    -2.6886317    1.4221037    0.2478455 
H    -4.4983088    2.3939104    1.0168630 
H    -4.5420060    2.1836544   -0.7554566 
H    -3.5212320    3.4562423   -0.0416241 
N    -2.7091566    0.3774481   -0.7923416 
H    -3.5146138    0.4535255   -1.4539473 
H    -2.7792212   -0.5665338   -0.3455141 
C    -1.3510614    2.1495862    0.2234203 
H    -2.7670126    0.9414228    1.2542583 
N    -0.8519590    2.7064129   -0.9875171 
N    -0.6442612    2.4158555    1.4334408 
H    -0.3789485    1.4939291    1.8422747 
H    -1.3048734    2.8917317    2.0858324 
H    -1.3612267    2.5395244   -1.8811731 
