15
 energy: -2.400209435185 gnorm: 0.000859997784 xtb: 6.6.0 (2ccbbd7)
C           -3.87103916482869        2.58775337757113        0.04827816654870
C           -2.78625744918499        1.63220786950298        0.52524557357334
H           -4.83986699179214        2.33982706056070        0.48321632651859
H           -3.97869814175458        2.54289670696131       -1.03464944563613
H           -3.63321152355772        3.61839247436929        0.31379318684298
N           -3.06769426986444        0.24746647798466        0.15969106220472
H           -2.97905278487549        0.13288933870368       -0.84121923022802
H           -4.01653358526304       -0.00188629093224        0.41012708983644
C           -1.42355291856363        2.03843204126322        0.01786837486630
H           -2.74105095324631        1.66852398157473        1.62641927630132
N           -1.21868206162158        2.18171595535923       -1.22970195077997
N           -0.40399195759907        2.21378668187767        0.94148656204283
H            0.53817515239793        2.27120391630297        0.58949737823366
H           -0.43156721857793        1.75932098234392        1.84393905130633
H           -1.94302254907198        2.03957288464000       -1.88287575095330
