15
Energy =
C    -3.9191364    2.5293758   -0.2503895 
C    -2.8039910    1.5100257    0.1240922 
H    -3.6126642    3.5834830   -0.1958105 
H    -4.7826158    2.4079842    0.4379168 
H    -4.3119709    2.4000231   -1.2784049 
N    -2.6129862    0.5188870   -0.9537929 
H    -3.2239460    0.6632220   -1.7884401 
H    -2.8219519   -0.4399183   -0.5894758 
C    -1.4376829    2.0696693    0.5401705 
H    -3.1488105    0.9793816    1.0463280 
N    -1.1519855    3.4605075    0.7208102 
N    -0.4122650    1.1383181    0.8866179 
H     0.4106789    1.6822218    1.2290840 
H    -0.1149051    0.6985484   -0.0115886 
H    -1.8172389    4.2488377    0.6063099 
