15
Energy =
C    -3.7652100    2.5263285   -0.6948523 
C    -2.8748818    1.8207091    0.3592717 
H    -4.4650844    3.2238546   -0.1875264 
H    -4.3803789    1.8303192   -1.2992308 
H    -3.1622416    3.1309335   -1.4072287 
N    -3.0533333    0.3527349    0.3404793 
H    -2.1528705   -0.1451393    0.1423065 
H    -3.7382270    0.0193021   -0.3744882 
C    -1.4143792    2.2238979    0.2168454 
H    -3.1826259    2.1828578    1.3717558 
N    -0.6790027    1.9085797   -0.9629852 
N    -0.7295081    2.8109662    1.3182613 
H     0.0902625    3.3254698    0.9252869 
H    -0.3336309    2.0149128    1.8650297 
H    -1.1455165    1.4283852   -1.7624303 
