15
Energy =
C    -3.8522670    2.6432626    0.1292128 
C    -2.6631714    1.6905214    0.3740824 
H    -4.2235361    3.0447732    1.0954015 
H    -4.6988884    2.1009443   -0.3470147 
H    -3.6407800    3.4951258   -0.5319160 
N    -3.1467628    0.3305504    0.0744557 
H    -3.3188803   -0.1858934    0.9682024 
H    -2.4490018   -0.2274505   -0.4692592 
C    -1.3410821    2.0107146   -0.3486524 
H    -2.3924571    1.7581896    1.4570885 
N    -1.0720924    3.2402285   -1.0212909 
N    -0.2168617    1.1735546   -0.1016027 
H     0.4584312    1.5023152    0.6216062 
H    -0.1692938    0.2603330   -0.6013586 
H    -1.7299104    4.0298728   -1.1632877 
