15
Energy =
C    -3.8567946    1.8215069   -0.5971729 
C    -2.7829825    1.9504071    0.5129680 
H    -4.6116865    2.6290573   -0.4909843 
H    -4.4004456    0.8559840   -0.5854041 
H    -3.4094593    1.9183903   -1.6114375 
N    -2.7206231    0.7475374    1.3635261 
H    -3.4170370    0.0128758    1.1049765 
H    -2.9184834    1.0097518    2.3571692 
C    -1.4066740    2.2330082   -0.0701992 
H    -3.0537902    2.8326303    1.1424157 
N    -0.7095563    3.4369451    0.2499173 
N    -0.7979743    1.3003197   -0.9629430 
H    -0.6277216    0.4375569   -0.4013541 
H     0.1419695    1.6777665   -1.2145442 
H    -1.1140191    4.1471636    0.8966846 
