15
 energy: -2.401335454325 gnorm: 0.000778764667 xtb: 6.6.0 (2ccbbd7)
C           -3.74732497337651        2.59176657306960        0.26182293382985
C           -2.63609239283756        1.56175908410357        0.38729884846826
H           -4.69765635428693        2.20017927074442        0.62592323994027
H           -3.88225200612469        2.87024979887100       -0.78277035914646
H           -3.51359043819899        3.49977977782317        0.81908341713245
N           -2.95217498180752        0.35014772436140       -0.36755498817831
H           -3.80372317669958       -0.07795051358537       -0.02596816800590
H           -2.20513186791616       -0.32565470114677       -0.27643699120742
C           -1.32708796688313        2.14079854698686       -0.08693757803026
H           -2.51162668902941        1.28994140450752        1.44932230429302
N           -0.98771437134967        1.99281556301988       -1.30319654303803
N           -0.55626138084692        2.86210265068184        0.80950823650641
H           -0.66367894559593        2.76922750590328        1.80967860998763
H            0.38574180984985        3.10744964285385        0.55069635284406
H           -1.58543040272284        1.48350091394265       -1.90697118672820
