15
Energy =
C    -3.6206123    2.7975823   -0.3341846 
C    -2.7614573    1.8929125    0.5562165 
H    -3.6748497    2.3904629   -1.3667220 
H    -3.1795675    3.8168572   -0.3811131 
H    -4.6492043    2.8784368    0.0759615 
N    -3.3999267    0.5766458    0.6855034 
H    -3.7161913    0.2306322   -0.2505177 
H    -4.2625381    0.6732341    1.2707468 
C    -1.3392628    1.7923301    0.0324390 
H    -2.6698305    2.3552785    1.5705180 
N    -0.9465450    0.7969837   -0.9099888 
N    -0.4144338    2.8287069    0.3412079 
H    -0.1700457    3.2743146   -0.5703231 
H     0.4528827    2.3507821    0.6721804 
H    -1.5932816    0.0281475   -1.1830586 
