15
Energy =
C    -3.9763450    2.1120372    0.6526526 
C    -2.7120579    1.3989014    0.1129723 
H    -4.7016039    2.3141797   -0.1656474 
H    -3.7992037    3.0867176    1.1271590 
H    -4.4888326    1.4655388    1.3958868 
N    -2.9233993    1.1261801   -1.3165474 
H    -3.7717817    0.5224754   -1.4282733 
H    -2.1309919    0.5439912   -1.6766364 
C    -1.3584224    2.0929276    0.3381166 
H    -2.6088973    0.4259994    0.6543690 
N    -1.1783264    3.2890067    1.1028146 
N    -0.1813483    1.4316895   -0.1256398 
H     0.6351668    1.8577015    0.3672905 
H    -0.0796648    1.7073081   -1.1268933 
H    -1.9205745    3.8491032    1.5628572 
