15
Energy =
C    -3.6923449    2.0539724   -0.9914024 
C    -2.8680210    1.7522604    0.2600532 
H    -4.6764017    1.5413991   -0.9229695 
H    -3.1686724    1.6833392   -1.8987845 
H    -3.8757187    3.1435579   -1.0946491 
N    -2.8756526    0.2994578    0.4627506 
H    -2.3258747    0.0616603    1.3220942 
H    -2.4341643   -0.1852232   -0.3541269 
C    -1.4628793    2.3575386    0.1679277 
H    -3.3667456    2.2314432    1.1373480 
N    -0.2853161    1.5557228    0.1100872 
N    -1.2913893    3.7729972    0.2064884 
H    -1.7780638    4.1353427    1.0548512 
H    -1.7526080    4.1718311   -0.6388245 
H    -0.2977073    0.5158893    0.0982024 
