15
Energy =
C    -3.9907318    1.7108578    0.4974951 
C    -2.5162774    1.3323243    0.2843065 
H    -4.1710880    2.8001276    0.3817812 
H    -4.3214022    1.4165679    1.5156617 
H    -4.6435941    1.1870001   -0.2352031 
N    -2.4435847    0.4114467   -0.8628715 
H    -2.1189572   -0.5299124   -0.5409000 
H    -1.7466177    0.7363024   -1.5755117 
C    -1.6315874    2.5665847    0.1073721 
H    -2.1587641    0.8073570    1.2040920 
N    -0.7409786    2.9718997    1.1469850 
N    -1.6533781    3.3102402   -1.1135405 
H    -0.9659476    4.0914683   -1.0258577 
H    -2.5960644    3.7486959   -1.1871594 
H    -0.6834376    2.4549334    2.0503353 
