15
Energy =
C    -3.7982888    2.5774348   -0.3302642 
C    -2.7672469    1.6999375    0.4220562 
H    -4.5814068    1.9981709   -0.8594821 
H    -3.3124712    3.2325373   -1.0861691 
H    -4.3192070    3.2452518    0.3886011 
N    -3.0372406    0.2609729    0.2443730 
H    -3.8716409    0.0567099   -0.3510867 
H    -3.2235669   -0.1799171    1.1757480 
C    -1.3403524    2.0197025   -0.0081979 
H    -2.8326214    1.9550916    1.5090149 
N    -0.5049601    2.8417901    0.8012852 
N    -0.8116277    1.5201331   -1.2345744 
H    -1.4853460    1.7777078   -1.9863061 
H    -0.8311360    0.4802939   -1.1531445 
H    -0.8428081    3.2484805    1.6989290 
