15
Energy =
C    -3.6062160    2.7645716    0.7404098 
C    -2.7890040    1.5191509    0.4041505 
H    -3.1093574    3.3503337    1.5427769 
H    -4.6185307    2.4654177    1.0867786 
H    -3.7208000    3.4087482   -0.1572597 
N    -3.5303990    0.7339521   -0.5867308 
H    -2.9828034   -0.1283904   -0.8181619 
H    -3.6212857    1.2803220   -1.4755514 
C    -1.3935695    1.8828117   -0.0829035 
H    -2.6839929    0.9130762    1.3361416 
N    -0.2380531    1.4609418    0.6345985 
N    -1.2143669    2.7194071   -1.2204567 
H    -0.8586446    3.6832911   -1.0418146 
H    -1.4814662    2.3305907   -2.1498042 
H    -0.3096377    0.8634299    1.4853052 
