15
Energy =
C    -3.8930764    2.5940369    0.0130658 
C    -2.6105367    1.7991527    0.3967387 
H    -4.7698335    1.9486287   -0.1936866 
H    -3.7921666    3.2216940   -0.8837947 
H    -4.1840314    3.2617326    0.8519056 
N    -2.9364789    0.3737400    0.6352589 
H    -2.3124550   -0.2603127    0.0855438 
H    -3.9036284    0.1061281    0.3461891 
C    -1.3789332    1.9701790   -0.5137638 
H    -2.2521257    2.2115124    1.3709844 
N    -1.2601066    2.9765368   -1.5186365 
N    -0.1757683    1.2977411   -0.1588017 
H     0.5406791    1.8607113    0.3480355 
H    -0.0984668    0.2815976   -0.3766111 
H    -1.9752764    3.6788441   -1.7868639 
