15
Energy =
C    -3.6560005    2.8364054   -0.2650668 
C    -2.8627891    1.7003251    0.3773833 
H    -3.3889602    3.8077688    0.2037057 
H    -4.7437058    2.6595902   -0.1266681 
H    -3.4407021    2.8912676   -1.3529918 
N    -3.3441359    0.4324326   -0.1831610 
H    -2.8199713   -0.3628597    0.2523352 
H    -3.1787622    0.4067941   -1.2167140 
C    -1.3632611    1.9228590    0.2154244 
H    -3.0609844    1.7075481    1.4769965 
N    -0.5254515    1.0575207   -0.5502127 
N    -0.7491624    2.9944180    0.9210570 
H    -0.1904998    3.5214288    0.2139380 
H    -0.0575443    2.5575636    1.5698469 
H    -0.8887367    0.2411762   -1.0839720 
