15
Energy =
C    -3.8576554    2.2580726   -0.7133962 
C    -2.8137212    1.7460057    0.3219414 
H    -3.4675436    2.9762830   -1.4480196 
H    -4.6973642    2.7566941   -0.1832555 
H    -4.3116491    1.4507474   -1.3220176 
N    -2.8570798    0.2677775    0.4112290 
H    -1.9062616   -0.1587784    0.3404675 
H    -3.3973494   -0.1848651   -0.3601725 
C    -1.3710124    2.2898783    0.2010999 
H    -3.1432521    2.1347230    1.3161752 
N    -0.9964834    3.3596685   -0.6667773 
N    -0.3826645    1.8774312    1.1473386 
H    -0.0195139    0.9477457    0.8496899 
H    -0.8358969    1.7734767    2.0816291 
H    -1.6173668    3.9008173   -1.2973448 
