15
Energy =
C    -3.5105258    2.8636190   -0.5778817 
C    -2.8664433    1.8538456    0.3856876 
H    -4.3491875    2.3979050   -1.1392903 
H    -2.7875190    3.2487922   -1.3288634 
H    -3.9162647    3.7309320   -0.0164649 
N    -3.5911284    0.5774028    0.2635527 
H    -3.9789907    0.3035662    1.1965327 
H    -2.9607497   -0.2037925   -0.0324955 
C    -1.3654087    1.7014784    0.1421872 
H    -2.9881074    2.2520844    1.4230244 
N    -0.4412204    1.8244344    1.2223482 
N    -0.8606829    1.4725882   -1.1750128 
H    -1.1795189    0.5219544   -1.4593608 
H     0.1810811    1.4307505   -1.1137238 
H    -0.7625627    1.9987431    2.1986131 
