15
Energy =
C    -3.5723857    2.6553018   -0.8416115 
C    -2.9190461    1.9678273    0.3553828 
H    -3.2311360    3.7100805   -0.9149554 
H    -4.6762052    2.6440163   -0.7183568 
H    -3.3243585    2.1290983   -1.7860494 
N    -3.4241253    0.5939714    0.4379174 
H    -3.0286578    0.1368287    1.2932820 
H    -3.0883917    0.0362991   -0.3815525 
C    -1.4006924    2.0207465    0.2820785 
H    -3.2232036    2.5222404    1.2774246 
N    -0.6872610    1.4321784   -0.8049510 
N    -0.6694977    2.6850178    1.3106918 
H     0.3317937    2.7173460    1.0138093 
H    -0.7051330    2.0623750    2.1473716 
H    -1.1853465    0.9462127   -1.5799987 
