15
Energy =
C    -3.8614259    2.5429582    0.0986510 
C    -2.7065648    1.5852599    0.4113999 
H    -4.0034538    2.6284408   -1.0007006 
H    -3.6418570    3.5543518    0.5023726 
H    -4.8045833    2.1773912    0.5559865 
N    -3.0142728    0.2547477   -0.1214402 
H    -3.1345083    0.3156086   -1.1609630 
H    -3.9206420   -0.0841287    0.2769991 
C    -1.3956673    2.1033770   -0.1565381 
H    -2.5912795    1.5109955    1.5186086 
N    -0.2712721    2.3398791    0.6871500 
N    -1.2530285    2.3236584   -1.5562600 
H    -0.5423112    1.6308597   -1.8784713 
H    -0.8137677    3.2644734   -1.6596104 
H    -0.3089597    2.1469821    1.7107330 
