15
Energy =
C    -3.9369011    2.2369616    0.3860661 
C    -2.5083560    1.6776782    0.4872212 
H    -3.9323879    3.3437863    0.4888209 
H    -4.5714534    1.8207196    1.1972509 
H    -4.3830015    1.9753835   -0.5972123 
N    -2.5613146    0.1982917    0.5017941 
H    -1.9562924   -0.2533606   -0.2093742 
H    -3.5233568   -0.1696507    0.3112710 
C    -1.6013234    2.3271752   -0.5708073 
H    -2.0827100    2.0123433    1.4635054 
N    -0.7165449    1.6164570   -1.4411999 
N    -1.5362873    3.7492586   -0.6119659 
H    -1.7547834    4.0212925   -1.5959192 
H    -0.5349578    3.9992281   -0.4552319 
H    -0.5408443    0.5929955   -1.4553449 
