15
Energy =
C    -3.7534018    2.2414620   -0.6591590 
C    -2.8125347    1.7348700    0.4500145 
H    -4.3250384    1.4059915   -1.1191586 
H    -3.1983635    2.7412929   -1.4827948 
H    -4.4826714    2.9675148   -0.2427249 
N    -2.9792491    0.2812057    0.5704581 
H    -3.9326257    0.0807775    0.9533286 
H    -2.3001471   -0.0822906    1.2813950 
C    -1.3625078    2.1252366    0.1760836 
H    -3.0832578    2.2215545    1.4190460 
N    -0.9848206    3.5002758    0.1652194 
N    -0.3669556    1.1374973   -0.0885319 
H     0.5212090    1.6375535   -0.3140082 
H    -0.6674929    0.6541482   -0.9630569 
H    -1.6869324    4.2491474    0.3479273 
