15
Energy =
C    -3.8817820    2.4140652   -0.5930566 
C    -2.8456353    1.5702067    0.1952340 
H    -3.5190420    3.3962222   -0.9307110 
H    -4.7791805    2.5907910    0.0373274 
H    -4.2283114    1.8915542   -1.5103481 
N    -2.7670214    0.2359273   -0.4123726 
H    -2.4493801    0.3230737   -1.4069848 
H    -3.7149339   -0.2090680   -0.4145607 
C    -1.4359970    2.1486711    0.3699045 
H    -3.2089144    1.4538424    1.2463065 
N    -1.0718992    3.4911075    0.0355848 
N    -0.4625374    1.3525190    1.0454774 
H     0.4139213    1.9148931    1.1202253 
H    -0.2457561    0.5539862    0.4100340 
H    -1.7139483    4.2322833   -0.3055833 
