15
Energy =
C    -3.7732038    2.5214129   -0.5163587 
C    -2.8259497    1.7456900    0.4160395 
H    -4.4423734    1.8335127   -1.0759158 
H    -3.2162344    3.1269918   -1.2642248 
H    -4.4157656    3.2080486    0.0734491 
N    -3.1620757    0.3188847    0.3568141 
H    -2.5450170   -0.2045851    1.0216394 
H    -2.9522350   -0.0488738   -0.6015316 
C    -1.3597292    1.9964306    0.0806492 
H    -2.9976485    2.1036100    1.4595406 
N    -0.4833674    2.5814062    1.0418431 
N    -0.8493118    1.6849354   -1.2149315 
H    -0.6763990    0.6567300   -1.2213933 
H     0.0908218    2.1335660   -1.2928064 
H    -0.8116474    2.8411669    1.9968084 
