15
Energy =
C    -3.7612645    1.7962183   -0.8286012 
C    -2.8546326    1.9747586    0.4157305 
H    -3.1743763    1.8495313   -1.7725663 
H    -4.5193562    2.6069254   -0.8660100 
H    -4.3067210    0.8318653   -0.8531224 
N    -2.9204913    0.8096272    1.3170811 
H    -3.5804622    0.0662765    0.9951193 
H    -3.2536880    1.1146525    2.2610863 
C    -1.4078706    2.2325136    0.0222297 
H    -3.2059861    2.8841269    0.9616351 
N    -0.7567111    3.4500916    0.3846516 
N    -0.6814438    1.2586614   -0.7266945 
H    -0.6037227    0.4235421   -0.1061874 
H     0.2883395    1.6226780   -0.8536539 
H    -1.2459744    4.1900927    0.9317120 
