15
Energy =
C    -3.9475674    1.9838856   -0.6576126 
C    -2.7303610    2.1887152    0.2819536 
H    -3.6945341    1.6684068   -1.6806261 
H    -4.5249322    2.9296365   -0.7352081 
H    -4.6432864    1.2098054   -0.2685673 
N    -2.9430840    1.4086443    1.5064423 
H    -2.9859726    0.3897224    1.2680244 
H    -3.8516297    1.6791393    1.9502512 
C    -1.3362295    1.8994492   -0.2843707 
H    -2.6797220    3.2683560    0.5653943 
N    -1.0611467    1.6165135   -1.6582524 
N    -0.2186296    2.0046135    0.5906320 
H     0.4641689    2.6405742    0.1240876 
H     0.2199618    1.0585521    0.6089847 
H    -1.7493936    1.6272731   -2.4357086 
