15
 energy: -2.400200625076 gnorm: 0.000781862315 xtb: 6.6.0 (2ccbbd7)
C           -3.86807271864845        2.49253701830521        0.13626738610662
C           -2.69525769922964        1.56616985019658        0.42663194787603
H           -4.02447543725837        2.59512561078424       -0.93672875880801
H           -3.69349069355464        3.48994978172704        0.54167171374645
H           -4.79442673864986        2.10951281231005        0.56575364319926
N           -2.88986522082819        0.23413103016058       -0.13697554465882
H           -2.84563703703380        0.28067144872444       -1.14620396751752
H           -3.80213190450488       -0.12949952835385        0.10971383377111
C           -1.38939064305409        2.14960156807263       -0.05624186383655
H           -2.60536808946936        1.44015788047525        1.51829830933076
N           -1.25783918113861        2.51280961964595       -1.26895478827034
N           -0.33571104506171        2.23083495507368        0.84056527265640
H            0.58345016653531        2.41648736120351        0.47140496226792
H           -0.29224324804421        1.63651321623318        1.65721875059461
H           -2.00573504741178        2.43083205897885       -1.90599438493918
