15
Energy =
C    -3.6851068    2.6646656   -0.4009367 
C    -2.7547330    1.6951075    0.3459948 
H    -3.4760109    2.6392598   -1.4923484 
H    -3.5563250    3.7006506   -0.0250530 
H    -4.7491019    2.3913067   -0.2385055 
N    -3.1657032    0.3209008    0.0363545 
H    -3.0532899    0.1431974   -0.9895613 
H    -4.1708495    0.1738505    0.2853153 
C    -1.2772862    1.8988869    0.0209381 
H    -2.8457717    1.8611587    1.4466273 
N    -0.7465388    3.1837191   -0.3025608 
N    -0.3472084    0.8688317    0.3350555 
H     0.1797455    1.1951771    1.1738729 
H     0.3357582    0.8408516   -0.4530206 
H    -1.3418584    4.0254554   -0.4443552 
