15
Energy =
C    -3.9098274    2.1247275   -0.3616155 
C    -2.6810967    1.6953498    0.4687617 
H    -4.4761310    1.2546145   -0.7570015 
H    -3.6246853    2.7622240   -1.2274342 
H    -4.6065848    2.7165009    0.2695375 
N    -2.5980154    0.2313369    0.5244808 
H    -2.6186507   -0.1688228   -0.4430731 
H    -3.4376072   -0.1415739    1.0275776 
C    -1.3859547    2.3032599   -0.0621327 
H    -2.7998984    2.0779634    1.5121757 
N    -0.8307852    3.4633326    0.5494125 
N    -0.7304880    1.7709062   -1.2113193 
H    -1.4456463    1.6664945   -1.9620385 
H    -0.3996224    0.8179226   -0.9464298 
H    -1.2787850    3.9153385    1.3742207 
