15
Energy =
C    -3.6817350    1.4217781   -1.0251123 
C    -3.0085984    1.9037469    0.2661852 
H    -3.0341021    0.6919064   -1.5564954 
H    -3.8684570    2.2827296   -1.7033033 
H    -4.6576465    0.9424407   -0.7997381 
N    -2.8681394    0.7689368    1.1870497 
H    -2.4002663   -0.0290584    0.6948268 
H    -3.8201406    0.4358122    1.4676476 
C    -1.6774161    2.5843557   -0.0242740 
H    -3.6497862    2.6858363    0.7404386 
N    -0.4590369    2.1729242    0.5947420 
N    -1.6552924    3.7476401   -0.8451062 
H    -0.9070901    3.5857164   -1.5543204 
H    -1.3214543    4.5274364   -0.2368825 
H    -0.4368674    1.3935397    1.2860929 
