15
Energy =
C    -3.7143758    2.3871728   -0.8848049 
C    -2.9572503    1.7770768    0.3001673 
H    -3.6854658    3.4971532   -0.8283647 
H    -4.7766469    2.0646117   -0.8722823 
H    -3.2465426    2.0716885   -1.8423757 
N    -3.0280161    0.3052219    0.2474631 
H    -3.5817755   -0.0429061   -0.5708430 
H    -3.5132420   -0.0502635    1.1042939 
C    -1.5165888    2.2674839    0.3242552 
H    -3.4258023    2.1484925    1.2448726 
N    -0.4290753    1.4228300   -0.0507037 
N    -1.2407900    3.6131828    0.7123762 
H    -0.2323356    3.7968201    0.5115730 
H    -1.3418777    3.6467985    1.7500116 
H    -0.6064513    0.4391940   -0.3459128 
