15
Energy =
C    -3.9815087    2.2683429   -0.2306544 
C    -2.7090245    1.7506011    0.4527404 
H    -4.0282735    3.3768586   -0.1699504 
H    -4.8844225    1.8601531    0.2704669 
H    -3.9987933    1.9689156   -1.3005102 
N    -2.7499339    0.2826882    0.4808920 
H    -2.9291543   -0.0853228   -0.4838875 
H    -3.5500289   -0.0300053    1.0797293 
C    -1.4499761    2.2830221   -0.2226440 
H    -2.6671751    2.1417746    1.4994895 
N    -0.4063708    1.4166970   -0.6666927 
N    -1.2441296    3.6920015   -0.3062636 
H    -1.7766860    4.0134209   -1.1433440 
H    -0.2359089    3.8454792   -0.5326732 
H    -0.4660097    0.3864876   -0.5209118 
