15
Energy =
C    -3.8543393    2.2884208   -0.5149497 
C    -2.8027538    1.7199375    0.4304860 
H    -3.8416972    3.3990370   -0.4907305 
H    -4.8611544    1.9324649   -0.2112573 
H    -3.6661033    1.9435520   -1.5527306 
N    -2.8572314    0.2532328    0.3251555 
H    -3.0296174   -0.1565860    1.2727805 
H    -1.9459480   -0.1462040   -0.0027376 
C    -1.4229356    2.2858495    0.1242705 
H    -3.0619206    2.0460381    1.4692194 
N    -0.7890898    2.0489774   -1.1311740 
N    -0.7660697    3.1074352    1.0859436 
H     0.0735697    3.5203259    0.6207221 
H    -0.4013732    2.4624271    1.8205071 
H    -1.2502958    1.4564874   -1.8543672 
