15
Energy =
C    -3.8568470    2.5820479   -0.1473801 
C    -2.8208168    1.5611791    0.3730446 
H    -4.4767997    2.9557948    0.6953445 
H    -4.5448352    2.1365437   -0.8971071 
H    -3.3733499    3.4662157   -0.6169032 
N    -3.0081577    0.2675213   -0.2924608 
H    -2.9221283    0.3831840   -1.3296831 
H    -3.9728580   -0.0888873   -0.0953942 
C    -1.3887205    2.0453826    0.2135119 
H    -2.9734817    1.4217958    1.4725850 
N    -0.8691864    2.4038333   -1.0666000 
N    -0.5254683    2.0882517    1.3481096 
H     0.3753664    2.5158350    1.0376283 
H    -0.3082398    1.0937828    1.5789911 
H    -1.4703010    2.3524712   -1.9160138 
