15
Energy =
C    -3.8611317    2.4944958   -0.0235667 
C    -2.7398969    1.5581146    0.4254522 
H    -3.8798750    2.5819265   -1.1303247 
H    -3.7417155    3.4996264    0.4340529 
H    -4.8392353    2.0729416    0.2930023 
N    -2.9772173    0.2565268   -0.2039387 
H    -2.3662908   -0.4659558    0.2429809 
H    -2.7054192    0.3032329   -1.2154540 
C    -1.3254934    2.0807944    0.1430396 
H    -2.8247985    1.4506714    1.5335948 
N    -1.0766263    3.2007877   -0.7042715 
N    -0.2011426    1.4699994    0.7733771 
H    -0.1699390    0.4721818    0.4724644 
H    -0.3572420    1.5009101    1.8039304 
H    -1.8256325    3.7094569   -1.2164361 
