15
Energy =
C    -3.8939002    2.4136816   -0.0944253 
C    -2.7849241    1.4136345    0.2292643 
H    -3.9390324    3.2069705    0.6819706 
H    -4.8706592    1.8850881   -0.1239719 
H    -3.7288425    2.8871924   -1.0843485 
N    -2.8086073    0.3500974   -0.7801290 
H    -2.0820624   -0.3636748   -0.5351389 
H    -2.5379314    0.7399068   -1.7132432 
C    -1.4243080    2.0824848    0.3280911 
H    -2.9969043    0.9694027    1.2341912 
N    -0.8544702    2.7889184   -0.7709664 
N    -0.6397372    1.9047997    1.5005607 
H    -0.2926593    2.8542848    1.7617484 
H     0.2009009    1.3603975    1.2058382 
H    -1.3786172    2.9142207   -1.6625687 
