15
Energy =
C    -3.9156553    2.4104746   -0.4517336 
C    -2.8238804    1.7461094    0.4234029 
H    -4.5670568    3.0484603    0.1820577 
H    -4.5706504    1.6902394   -0.9807796 
H    -3.4695458    3.0684356   -1.2292051 
N    -2.9150620    0.2727325    0.3858421 
H    -3.6902972   -0.0874736   -0.2153664 
H    -3.0977620   -0.0892007    1.3510263 
C    -1.4326836    2.2271201    0.0335516 
H    -2.9592744    2.0993162    1.4761163 
N    -0.4491087    1.3518897   -0.5130822 
N    -1.0685990    3.5808742    0.2796191 
H    -0.6491376    3.9322909   -0.6091756 
H    -0.2897947    3.5478868    0.9739328 
H    -0.6740855    0.3484576   -0.6840577 
