15
Energy =
C    -3.3074348    2.1901805   -1.1024558 
C    -2.9558630    1.6642327    0.3012033 
H    -2.4523718    2.7205872   -1.5749725 
H    -4.1633821    2.8947974   -1.0463527 
H    -3.5883006    1.3595772   -1.7861810 
N    -3.1040841    0.2044673    0.3044261 
H    -4.1213494   -0.0336508    0.2440754 
H    -2.7649579   -0.1753313    1.2197871 
C    -1.5564541    2.0927656    0.7263300 
H    -3.6593574    2.1060721    1.0478964 
N    -1.3053630    3.4557838    1.0596522 
N    -0.4391186    1.2355545    0.5130375 
H     0.2522301    1.4490883    1.2649307 
H    -0.0103480    1.5436130   -0.3856434 
H    -2.0849318    4.1461886    1.1135418 
