15
Energy =
C    -3.7701409    2.4331688    0.4907562 
C    -2.7063714    1.3403445    0.2872128 
H    -3.3479539    3.4564024    0.3922930 
H    -4.2145697    2.3464506    1.5047273 
H    -4.5991961    2.3310524   -0.2425154 
N    -3.1360893    0.4546465   -0.8004843 
H    -2.4639500   -0.3468043   -0.8626563 
H    -3.0720744    0.9597742   -1.7150318 
C    -1.3191020    1.9142725    0.0344371 
H    -2.6348820    0.7381749    1.2275560 
N    -1.0687391    2.7859011   -1.0667252 
N    -0.2350701    1.5440237    0.8823143 
H    -0.3598820    2.0799928    1.7687366 
H     0.6407727    1.9079000    0.4439256 
H    -1.8379784    3.0766761   -1.7068801 
