15
Energy =
C    -3.9872389    2.0931238   -0.0982656 
C    -2.6789542    1.5773864    0.4877935 
H    -4.8432383    1.6673316    0.4663834 
H    -4.0818107    1.7657931   -1.1558164 
H    -4.0352900    3.2014085   -0.0460384 
N    -2.6809834    0.1148131    0.3360944 
H    -2.7441904   -0.3368252    1.2776280 
H    -1.7894063   -0.2248319   -0.0989873 
C    -1.4767721    2.2368757   -0.1830192 
H    -2.6541611    1.8510209    1.5707729 
N    -0.6014370    3.0788220    0.5655508 
N    -1.1812545    1.9847527   -1.5569008 
H    -0.2600377    2.4291310   -1.7674915 
H    -1.8910870    2.5072101   -2.1131156 
H    -0.7622753    3.2741215    1.5768473 
