15
Energy =
C    -3.6536241    2.4200444   -0.8507616 
C    -2.9020500    1.8922803    0.3812658 
H    -2.9637094    2.7950994   -1.6368174 
H    -4.3242286    3.2560099   -0.5609663 
H    -4.2825340    1.6241333   -1.3054662 
N    -3.2612204    0.4758784    0.5662800 
H    -3.6676121    0.3419961    1.5218111 
H    -2.4217030   -0.1489484    0.5162767 
C    -1.3976715    2.1030740    0.2623073 
H    -3.2335714    2.4866323    1.2700261 
N    -0.6529633    1.4844137   -0.7853255 
N    -0.7223710    2.9518651    1.1881225 
H     0.2634475    3.0548340    0.8577781 
H    -0.6747308    2.4260380    2.0881793 
H    -1.1333882    0.8644290   -1.4727201 
