15
Energy =
C    -3.8652096    2.3912760    0.0380195 
C    -2.6822492    1.5120053    0.4259919 
H    -4.8099209    1.9215534    0.3850809 
H    -3.9240559    2.4982160   -1.0655006 
H    -3.7746024    3.3988488    0.4969696 
N    -2.8698833    0.2060750   -0.2237222 
H    -2.8737474   -0.5483224    0.5018433 
H    -2.0820224   -0.0215375   -0.8761381 
C    -1.3571127    2.1723251    0.0540113 
H    -2.6970331    1.3928536    1.5378185 
N    -1.0319498    2.4511348   -1.3040105 
N    -0.4190581    2.5373173    1.0631871 
H    -0.1663123    1.6695343    1.5843059 
H    -0.9010193    3.1894526    1.7198359 
H    -1.6890280    2.1989431   -2.0720833 
