15
Energy =
C    -3.7941304    2.6316974    0.1020118 
C    -2.7388765    1.5543295    0.3887214 
H    -3.8607891    2.8424107   -0.9859917 
H    -3.5325777    3.5752662    0.6289378 
H    -4.7894518    2.2952198    0.4629837 
N    -3.0854689    0.2952900   -0.3006123 
H    -2.3405294    0.0095588   -0.9797117 
H    -3.9713341    0.3729226   -0.8535343 
C    -1.3413924    2.0449891    0.0401427 
H    -2.7311692    1.3602527    1.4902818 
N    -0.9963134    2.4014053   -1.2968115 
N    -0.3466889    2.1302282    1.0571564 
H     0.4792529    2.6185866    0.6436260 
H    -0.0388104    1.1507728    1.2441789 
H    -1.7027324    2.3442754   -2.0608324 
