15
Energy =
C    -3.6885795    2.6039606    0.5313224 
C    -2.6316628    1.5021013    0.5057710 
H    -4.5797899    2.2695676    1.1016523 
H    -4.0064247    2.8519377   -0.5040362 
H    -3.2812088    3.5195496    1.0118141 
N    -3.2016804    0.3335424   -0.1714138 
H    -3.9759527   -0.0570548    0.4151726 
H    -2.4730239   -0.4172234   -0.2266638 
C    -1.3756407    1.9845004   -0.1960295 
H    -2.3493316    1.2426667    1.5562477 
N    -1.3539515    2.1702732   -1.6095886 
N    -0.2458045    2.3871290    0.5756727 
H     0.4168493    2.8716830   -0.0707098 
H     0.2316415    1.5097915    0.8767081 
H    -2.1853911    1.9005761   -2.1787861 
