15
Energy =
C    -3.8538131    2.5437715    0.0323340 
C    -2.6584140    1.6883671    0.4839016 
H    -3.7092674    3.6053811    0.3210344 
H    -4.7892424    2.1991395    0.5219973 
H    -3.9858947    2.4756324   -1.0693056 
N    -3.0211579    0.2729134    0.3544389 
H    -3.2495670    0.0583815   -0.6447872 
H    -3.8688763    0.0637227    0.9306924 
C    -1.3716546    1.9831801   -0.2829912 
H    -2.4290383    1.9060899    1.5546490 
N    -1.0765545    3.2854224   -0.7880667 
N    -0.3057633    1.0409322   -0.2424046 
H     0.4239436    1.4517808    0.3790540 
H     0.0991819    1.0177242   -1.2033467 
H    -1.7590614    4.0709711   -0.7630098 
