15
Energy =
C    -3.9063841    2.3322350   -0.5113533 
C    -2.8018059    1.7635834    0.3872829 
H    -3.8814328    3.4435777   -0.4900953 
H    -4.9047234    1.9981328   -0.1593431 
H    -3.7621609    2.0007186   -1.5616994 
N    -2.9020443    0.2985518    0.3991913 
H    -2.9091248   -0.0632684   -0.5842905 
H    -3.8133626    0.0186785    0.8322683 
C    -1.4280506    2.2484768   -0.0553881 
H    -2.9348228    2.1536827    1.4260593 
N    -0.3520784    1.3519391   -0.3220008 
N    -1.1583433    3.6452542   -0.0846734 
H    -0.7464721    3.8380298   -1.0242545 
H    -0.3913381    3.8038896    0.6054032 
H    -0.4715399    0.3227121   -0.2092762 
