15
Energy =
C    -3.3758456    2.4919795    1.1457753 
C    -2.6249038    1.4347788    0.3249145 
H    -4.1389049    2.0091610    1.7925024 
H    -3.8796051    3.2175621    0.4706622 
H    -2.6678241    3.0518840    1.7940870 
N    -3.5685147    0.6630945   -0.5082068 
H    -3.3717076    0.7812262   -1.5292213 
H    -4.5626095    0.9614563   -0.3673483 
C    -1.5060020    2.0712004   -0.4943628 
H    -2.1443276    0.7264674    1.0410355 
N    -0.1665100    1.5900639   -0.3885664 
N    -1.7709777    3.1991337   -1.3306639 
H    -2.3135821    2.8467306   -2.1477590 
H    -0.8568506    3.5355322   -1.7073355 
H     0.0733308    0.7685535    0.2066675 
