15
Energy =
C    -3.8515118    2.0573933   -0.4501520 
C    -2.6745168    1.9396690    0.5493118 
H    -3.4931168    2.2241852   -1.4903495 
H    -4.4896220    2.9255301   -0.1800480 
H    -4.5095766    1.1658276   -0.4788989 
N    -2.6903267    0.6491701    1.2645670 
H    -3.4813760    0.0226704    0.9920343 
H    -2.7907214    0.8189736    2.2929343 
C    -1.3341993    2.1492538   -0.1449520 
H    -2.7602349    2.7733709    1.2905581 
N    -0.8961385    3.4649674   -0.4671911 
N    -0.5820609    1.0483554   -0.6482543 
H    -1.2491168    0.4555287   -1.1865391 
H    -0.2886836    0.4915993    0.1835662 
H    -1.4532960    4.3016440   -0.1931773 
