15
Energy =
C    -3.8262351    1.9369249   -0.7162771 
C    -2.8192624    1.8984266    0.4410002 
H    -4.8529577    1.7432281   -0.3391760 
H    -3.5684280    1.1657720   -1.4748333 
H    -3.8133769    2.9336926   -1.2072212 
N    -2.8775291    0.5939076    1.1313618 
H    -1.9513783    0.1051229    1.0920390 
H    -3.5536057   -0.0637448    0.6769530 
C    -1.4173952    2.2318498   -0.0536692 
H    -3.1068290    2.6883301    1.1746237 
N    -0.7467529    3.4126038    0.3797761 
N    -0.7773353    1.4013933   -1.0170573 
H     0.1956937    1.2524852   -0.6702951 
H    -0.6937165    1.9767005   -1.8836896 
H    -1.1751054    4.0641478    1.0717589 
