15
Energy =
C    -3.9121903    2.4324677   -0.3215592 
C    -2.7640238    1.7593922    0.4704182 
H    -3.5223047    3.0360739   -1.1699807 
H    -4.4710322    3.1239839    0.3436443 
H    -4.6435584    1.7179566   -0.7476754 
N    -2.9128303    0.2907359    0.5085380 
H    -3.7532374   -0.0645764   -0.0006186 
H    -3.0126347   -0.0234072    1.5021863 
C    -1.4019025    2.1661115   -0.0757435 
H    -2.7804737    2.1601887    1.5144084 
N    -0.5144961    1.2315945   -0.6853772 
N    -0.9648404    3.5125529    0.0717853 
H    -0.6468920    3.8174124   -0.8744638 
H    -0.1072170    3.4722131    0.6655306 
H    -0.7910857    0.2320230   -0.7912606 
