15
Energy =
C    -3.9734172    2.2263661   -0.3300183 
C    -2.7388260    1.7544045    0.4603341 
H    -3.6994878    2.8650685   -1.1964735 
H    -4.6459700    2.8118432    0.3316664 
H    -4.5613618    1.3676347   -0.7188244 
N    -2.8050336    0.2957079    0.6201455 
H    -1.9597670   -0.0336192    1.1443438 
H    -2.8040346   -0.1745393   -0.3147620 
C    -1.4329014    2.2482732   -0.1597144 
H    -2.7687533    2.2168636    1.4784106 
N    -0.5481780    1.3907438   -0.8820392 
N    -1.0487035    3.6075251    0.0382968 
H    -1.6406080    4.1804611   -0.6012286 
H    -0.0674301    3.7088782   -0.3061516 
H    -0.7480725    0.3841570   -1.0534359 
