15
Energy =
C    -3.8010170    2.4572290    0.4444923 
C    -2.6757157    1.4302175    0.3315308 
H    -4.7510422    1.9588092    0.7303217 
H    -3.9533597    2.9651214   -0.5327387 
H    -3.5588782    3.2231495    1.2119344 
N    -3.0288603    0.4796466   -0.7261275 
H    -3.8807134   -0.0560681   -0.4363004 
H    -2.2603428   -0.2258386   -0.8221465 
C    -1.3489858    2.1162684    0.0319925 
H    -2.5737853    0.8938881    1.3063779 
N    -1.0816515    2.6496558   -1.2600739 
N    -0.3984130    2.3439340    1.0703137 
H    -0.1030635    1.4112365    1.4314944 
H    -0.8867428    2.8557011    1.8372567 
H    -1.7702006    2.5115177   -2.0303466 
