15
Energy =
C    -3.8148922    2.5188673    0.2076951 
C    -2.6397312    1.5616397    0.4442570 
H    -4.0597894    2.5871561   -0.8733414 
H    -3.5657596    3.5359587    0.5810275 
H    -4.7134601    2.1582223    0.7520622 
N    -2.9519339    0.2231320   -0.0839513 
H    -3.8918913    0.1797942   -0.5439788 
H    -2.9758656   -0.4666161    0.7033721 
C    -1.3549586    2.0943168   -0.1797405 
H    -2.4704358    1.5022598    1.5473983 
N    -0.3075982    2.6015231    0.6420037 
N    -1.1545626    2.0791516   -1.5918022 
H    -1.9347857    2.6179242   -2.0218519 
H    -1.2550735    1.0849575   -1.8918348 
H    -0.3909754    2.6298901    1.6800136 
