15
Energy =
C    -3.7822935    1.3789327   -0.7001378 
C    -2.6670571    1.5931006    0.3518076 
H    -3.7219682    0.3571051   -1.1358052 
H    -3.7948325    2.0640618   -1.5571004 
H    -4.7765979    1.4493081   -0.2104279 
N    -2.0121668    0.2921385    0.5406205 
H    -1.4976951    0.2705356    1.4505520 
H    -1.3023292    0.1491455   -0.2181839 
C    -1.6225938    2.7129941    0.1372749 
H    -3.1757657    1.8731059    1.3074347 
N    -0.6325262    2.9115297    1.1436669 
N    -1.6594770    3.6977009   -0.9024173 
H    -1.8177726    4.6162603   -0.4329798 
H    -2.4337277    3.5662097   -1.5726464 
H    -0.5689661    2.3072458    1.9893229 
