15
Energy =
C    -3.9738345    2.2549701   -0.0887400 
C    -2.6960180    1.6760913    0.5108875 
H    -4.0504040    1.9614088   -1.1569501 
H    -3.9814627    3.3630923   -0.0122508 
H    -4.8594207    1.8562620    0.4491835 
N    -2.8354671    0.2113181    0.4417494 
H    -2.9365871   -0.1762756    1.4087353 
H    -2.0313260   -0.2784784    0.0055629 
C    -1.4621230    2.2881188   -0.1715886 
H    -2.6377406    2.0040609    1.5773761 
N    -0.3612929    1.5408316   -0.6962563 
N    -1.3236262    3.7054570   -0.1492558 
H    -1.0605850    3.9846984   -1.1202611 
H    -0.4912011    3.9079497    0.4473975 
H    -0.2546442    0.5078440   -0.7084081 
