15
Energy =
C    -3.9112462    2.4385282    0.3288381 
C    -2.6248885    1.5649370    0.3533518 
H    -4.2042385    2.7061642    1.3656319 
H    -4.7840943    1.9377797   -0.1342612 
H    -3.7748602    3.3877370   -0.2280473 
N    -2.9041082    0.1892093   -0.1185820 
H    -2.2474885   -0.0941835   -0.8836553 
H    -3.8551299    0.0779071   -0.5366587 
C    -1.4214531    2.1890515   -0.3612900 
H    -2.2936038    1.4906525    1.4169416 
N    -0.1700643    1.5065485   -0.3555272 
N    -1.4190369    3.5574325   -0.7572773 
H    -0.9582362    3.5868746   -1.6937535 
H    -0.7739494    4.0481999   -0.0996632 
H    -0.0844049    0.5468006    0.0448703 
