15
Energy =
C    -4.0485862    1.7257723    0.0991751 
C    -2.5531990    1.4312539    0.3799068 
H    -4.5717391    0.9091777   -0.4377525 
H    -4.1873939    2.6486859   -0.5026497 
H    -4.5886574    1.8788178    1.0577655 
N    -2.1445956    0.1084225   -0.1381141 
H    -1.3760630    0.1963069   -0.8459659 
H    -2.9123496   -0.4090256   -0.6212703 
C    -1.6522308    2.5543740   -0.1298808 
H    -2.4179335    1.3982672    1.4873589 
N    -0.9856999    3.4236903    0.7851494 
N    -1.4265083    2.7210310   -1.5312510 
H    -0.7157868    3.4769055   -1.6518523 
H    -2.3142246    3.0833095   -1.9396026 
H    -1.0968512    3.3221177    1.8165546 
