15
Energy =
C    -3.5957190    2.4962788    0.7999497 
C    -2.6230988    1.3888284    0.3707431 
H    -4.4064164    2.0686294    1.4278029 
H    -4.0506421    2.9891924   -0.0848199 
H    -3.0615457    3.2661397    1.3983771 
N    -3.3297860    0.3518543   -0.4073494 
H    -2.9388721    0.2583708   -1.3747182 
H    -4.3500209    0.5596707   -0.5194396 
C    -1.4268691    1.9643857   -0.3739699 
H    -2.2138113    0.9115259    1.2951056 
N    -1.5923695    2.6534931   -1.6124628 
N    -0.1167918    1.8216483    0.1715620 
H     0.5335370    2.3786349   -0.4269926 
H     0.1486778    0.8212699    0.0365192 
H    -2.5386139    2.7685777   -2.0337441 
