15
Energy =
C    -3.9039091    2.3261305   -0.2400595 
C    -2.7180372    1.6647488    0.4606847 
H    -3.8264145    3.4331217   -0.1787230 
H    -4.8547516    2.0130976    0.2400219 
H    -3.9407204    2.0256223   -1.3084953 
N    -2.8076569    0.2172064    0.2512502 
H    -3.6882223   -0.1390873    0.6927576 
H    -2.0231836   -0.2464057    0.7682419 
C    -1.3971289    2.2159203   -0.0678114 
H    -2.7781923    1.8947503    1.5524945 
N    -0.5800468    3.0357057    0.7617202 
N    -0.8642921    1.7910326   -1.3212985 
H    -1.6640921    1.5202985   -1.9321428 
H    -0.3425282    0.9108469   -1.1225454 
H    -0.8962658    3.3494675    1.7036708 
