15
Energy =
C    -3.7729773    2.6790055   -0.2602299 
C    -2.8030348    1.6805009    0.3970629 
H    -4.4613637    2.1747611   -0.9710154 
H    -3.2324364    3.4756553   -0.8166586 
H    -4.3968362    3.1704442    0.5154229 
N    -3.1570719    0.3166189   -0.0186667 
H    -2.4648432   -0.3601091    0.3819704 
H    -3.1166876    0.2299979   -1.0607185 
C    -1.3450999    2.0440519    0.1273356 
H    -2.9275110    1.7472409    1.5056058 
N    -0.5612324    1.3893425   -0.8703192 
N    -0.7560502    3.1168106    0.8587692 
H     0.1507603    3.3504639    0.3949946 
H    -0.5088563    2.7331364    1.7968838 
H    -0.9387807    0.6329579   -1.4770779 
