15
Energy =
C    -3.9688102    1.9579340   -0.2374129 
C    -2.6549617    1.6358273    0.4984428 
H    -3.8007952    2.5460553   -1.1646985 
H    -4.6376374    2.5539203    0.4187417 
H    -4.5118398    1.0327943   -0.5283969 
N    -2.4527767    0.1831355    0.4992367 
H    -3.2235942   -0.2664131    1.0480399 
H    -1.5726099   -0.0345175    1.0247655 
C    -1.4651838    2.3545220   -0.1327948 
H    -2.7404236    1.9942737    1.5538266 
N    -0.8903484    3.4930794    0.4994713 
N    -0.8931723    1.9036446   -1.3591169 
H    -1.6675757    1.8306789   -2.0514672 
H    -0.5514417    0.9333014   -1.1889464 
H    -1.2722624    3.8753021    1.3903447 
