15
Energy =
C    -3.9359456    2.3037319   -0.4573150 
C    -2.7900226    1.7425483    0.4040626 
H    -4.5273494    1.4910651   -0.9303037 
H    -3.5621762    2.9670231   -1.2668278 
H    -4.6299193    2.8966404    0.1744085 
N    -2.9012577    0.2788952    0.4361814 
H    -2.1666150   -0.1115804    1.0721006 
H    -2.7441444   -0.1126265   -0.5223267 
C    -1.4271463    2.2491183   -0.0634160 
H    -2.9072141    2.1304702    1.4457115 
N    -0.3892030    1.3853700   -0.5256003 
N    -1.1380301    3.6376197    0.0441664 
H    -0.7981258    3.9364192   -0.8966265 
H    -0.3167809    3.7123773    0.6843841 
H    -0.4982659    0.3533344   -0.6048166 
