15
Energy =
C    -3.9058097    1.8361392   -0.6765969 
C    -2.7548863    2.1424414    0.3170953 
H    -4.5327093    0.9845632   -0.3349354 
H    -3.5847529    1.5830036   -1.6974267 
H    -4.5776273    2.7174682   -0.7577230 
N    -2.8914576    1.2696941    1.4886309 
H    -2.8136458    0.2688738    1.1860631 
H    -3.8367833    1.3991592    1.9208482 
C    -1.3110421    2.0871121   -0.2106691 
H    -2.8765924    3.1996299    0.6579212 
N    -0.9593266    1.8241804   -1.5688295 
N    -0.2377203    2.3729575    0.6843857 
H    -0.2840139    1.6643223    1.4490650 
H    -0.4224414    3.3063839    1.1097850 
H    -1.6109626    1.6316558   -2.3522833 
