15
Energy =
C    -3.8084511    2.5290845   -0.3132691 
C    -2.7914664    1.6571588    0.4444727 
H    -3.3227825    3.1574498   -1.0902680 
H    -4.3373376    3.2036618    0.3920650 
H    -4.5696342    1.9051846   -0.8302188 
N    -3.1265959    0.2459261    0.2274834 
H    -4.0103417    0.0243883    0.7421982 
H    -2.3792639   -0.3551550    0.6481980 
C    -1.3621725    1.9602257    0.0135817 
H    -2.8588854    1.8850602    1.5358007 
N    -0.5985517    2.9489973    0.7008777 
N    -0.8370002    1.4123479   -1.1926355 
H     0.2027893    1.4328667   -1.1071781 
H    -1.0847345    2.0859810   -1.9481178 
H    -0.9771035    3.4390521    1.5399037 
