15
Energy =
C    -3.9090135    1.7203940   -0.5112796 
C    -2.7755392    1.7982966    0.5091694 
H    -4.0500096    2.6999172   -1.0155827 
H    -4.8530725    1.4399537    0.0029810 
H    -3.6917778    0.9431362   -1.2744701 
N    -2.6638836    0.4946670    1.1694185 
H    -1.9234350    0.5519379    1.9077858 
H    -2.3243443   -0.2156377    0.4766061 
C    -1.4628065    2.2203780   -0.1375762 
H    -3.0494090    2.5668963    1.2714902 
N    -0.8042101    3.4177474    0.2723035 
N    -0.8529367    1.4054155   -1.1385928 
H     0.1145044    1.7684819   -1.2907775 
H    -1.3727225    1.5883933   -2.0239235 
H    -1.1990568    4.0342466    1.0144175 
