15
Energy =
C    -3.4608955    3.0339914    0.3476137 
C    -2.3909326    1.9202289    0.4867738 
H    -3.2629131    3.8407637    1.0853761 
H    -4.4846432    2.6536718    0.5518147 
H    -3.5078031    3.5107139   -0.6422433 
N    -3.0420120    0.6860821    0.9403533 
H    -3.7431638    0.3821184    0.2223900 
H    -3.5565731    0.8622128    1.8354699 
C    -1.4967181    1.6224983   -0.7290702 
H    -1.6710414    2.2432312    1.2779149 
N    -1.5624155    2.3235304   -1.9697852 
N    -0.4925501    0.6165076   -0.6181384 
H    -0.9833957   -0.2774023   -0.3980453 
H     0.1056550    0.8586647    0.1996565 
H    -2.2140388    3.0920674   -2.2159888 
