15
Energy =
C    -3.8502750    2.5401031   -0.5014729 
C    -2.9562904    1.6570044    0.3649138 
H    -4.9067955    2.2128572   -0.3978189 
H    -3.5653492    2.4519084   -1.5711418 
H    -3.7715411    3.6023694   -0.1870229 
N    -3.1245115    0.2678463   -0.0684124 
H    -2.5738579   -0.3515625    0.5713664 
H    -2.7025250    0.1493604   -1.0208278 
C    -1.4993729    2.0967960    0.3023528 
H    -3.3050069    1.7481097    1.4209940 
N    -0.8179778    2.5227671    1.4808140 
N    -0.7874212    2.0700113   -0.9344869 
H     0.2279500    2.1688892   -0.7101369 
H    -1.0550379    2.9404087   -1.4424997 
H    -1.2934758    2.5425191    2.4085910 
