15
Energy =
C    -3.9561890    2.0441428    0.4850806 
C    -2.6279597    1.3008277    0.2505935 
H    -4.6833534    1.8445921   -0.3317898 
H    -3.8172568    3.1462287    0.5343005 
H    -4.4159995    1.7144887    1.4404700 
N    -2.7114434    0.5658112   -1.0164399 
H    -3.4247601   -0.1944484   -0.9175612 
H    -1.7988268    0.0794571   -1.1864261 
C    -1.4464522    2.2574337    0.2494645 
H    -2.4572515    0.5794350    1.0879015 
N    -1.2224821    3.1350208   -0.8521005 
N    -0.6308547    2.3782501    1.4141404 
H    -1.2103658    2.8728185    2.1271681 
H     0.1567955    3.0232026    1.1796163 
H    -1.8363894    3.0698458   -1.6929845 
