15
Energy =
C    -3.8185413    2.1758889   -0.5989488 
C    -2.7946213    1.6744803    0.4134291 
H    -3.7822791    3.2828791   -0.6835773 
H    -4.8378569    1.8747605   -0.2763708 
H    -3.6315819    1.7173959   -1.5929825 
N    -2.8706520    0.2060031    0.4254603 
H    -3.0351628   -0.1258882    1.4047090 
H    -1.9695399   -0.2332092    0.1229704 
C    -1.3863128    2.1929252    0.1131760 
H    -3.0904077    2.0773890    1.4133215 
N    -0.6122076    2.8033313    1.1406086 
N    -0.8079803    2.0845464   -1.1878191 
H    -1.3548279    2.7018714   -1.8246560 
H    -0.9260956    1.1006065   -1.5115463 
H    -0.9676572    2.8922489    2.1160435 
