15
Energy =
C    -3.9655871    2.2539525   -0.2998421 
C    -2.7620376    1.6658689    0.4581523 
H    -4.5837648    2.8719015    0.3848996 
H    -4.6201068    1.4498940   -0.7013193 
H    -3.6570160    2.8965386   -1.1509337 
N    -2.8599194    0.2024871    0.4400345 
H    -2.0680328   -0.1958642    0.9980262 
H    -2.7170180   -0.1390064   -0.5408311 
C    -1.4286218    2.1488717   -0.1036930 
H    -2.8211994    2.0068652    1.5200761 
N    -0.5923805    3.0164221    0.6602161 
N    -0.9661057    1.6867446   -1.3735514 
H     0.0107263    2.0349315   -1.4983806 
H    -1.5426625    2.1664398   -2.0974291 
H    -0.8774409    3.3636086    1.6010446 
