15
Energy =
C    -4.0533968    2.1484985   -0.1967845 
C    -2.7281712    1.5155010    0.3202492 
H    -4.8051818    2.1625375    0.6209453 
H    -4.5114864    1.5913961   -1.0383627 
H    -3.9566758    3.1800118   -0.5639400 
N    -2.4678795    0.2247495   -0.3501246 
H    -3.1768521   -0.0428952   -1.0692345 
H    -2.4513127   -0.5445633    0.3596458 
C    -1.4605354    2.3777116    0.2670849 
H    -2.8573599    1.3356877    1.4169392 
N    -1.4424437    3.7678964   -0.0722482 
N    -0.2394880    1.7993630    0.7290525 
H     0.4981091    2.5372356    0.6897825 
H     0.0259373    1.0868984    0.0140014 
H    -2.2641525    4.3569620   -0.3053894 
