15
Energy =
C    -3.8961491    2.5669815   -0.0775655 
C    -2.7251516    1.6633057    0.3815011 
H    -4.3521963    3.0743576    0.7988374 
H    -4.6963659    1.9733274   -0.5705551 
H    -3.6296776    3.3466851   -0.8035166 
N    -3.0660209    0.2714024    0.0537428 
H    -3.9881363    0.0282260    0.4877743 
H    -2.3831510   -0.3747946    0.5117031 
C    -1.3155935    2.0167408   -0.1390947 
H    -2.6506314    1.7625863    1.4923368 
N    -1.0247991    3.1260145   -0.9902482 
N    -0.1933604    1.2629283    0.3185719 
H    -0.2575812    0.3223331   -0.1264011 
H    -0.2696248    1.1537739    1.3525562 
H    -1.7027179    3.7744562   -1.4318910 
