15
Energy =
C    -3.8764521    2.4564730   -0.1447320 
C    -2.7453839    1.6153841    0.4315282 
H    -3.8879598    2.3539533   -1.2516036 
H    -3.7461071    3.5261980    0.1227584 
H    -4.8509524    2.0991386    0.2486356 
N    -2.9923745    0.2196335    0.0401557 
H    -3.2104581   -0.3481058    0.8912486 
H    -2.1430100   -0.2099007   -0.3977635 
C    -1.3931515    2.1273968   -0.0504373 
H    -2.7724895    1.7133902    1.5435813 
N    -0.4127487    2.5905721    0.8741783 
N    -1.0901696    2.1757733   -1.4406311 
H    -0.1905752    1.6605053   -1.5586099 
H    -0.8834822    3.1756955   -1.6555496 
H    -0.5842700    2.5824867    1.9026868 
