15
Energy =
C    -3.6927434    2.8465922    0.0468147 
C    -2.7529483    1.6910172    0.4556584 
H    -3.1665021    3.6030784   -0.5757406 
H    -4.0742972    3.3640414    0.9523781 
H    -4.5709323    2.4918897   -0.5330109 
N    -3.3310548    0.4024077    0.0515350 
H    -3.6108437    0.4308513   -0.9566790 
H    -4.2077663    0.2377208    0.5998761 
C    -1.3407281    1.8814036   -0.0770696 
H    -2.6294271    1.6925769    1.5678466 
N    -0.9071576    1.3169103   -1.3125567 
N    -0.4651174    2.7792451    0.5947423 
H    -0.2898016    3.5630581   -0.0716673 
H     0.4430510    2.2735432    0.6927823 
H    -1.5099120    0.6622897   -1.8527175 
