15
Energy =
C    -3.6389361    1.9541619   -1.2403667 
C    -2.9140211    1.5400992    0.0775979 
H    -3.5687847    1.1903602   -2.0403025 
H    -3.2929503    2.8822170   -1.7129866 
H    -4.7229849    2.0926947   -1.0392646 
N    -2.3725704    0.1704788   -0.0308638 
H    -2.5766270   -0.3067272   -0.9376081 
H    -2.7845454   -0.4344664    0.7174725 
C    -1.8275610    2.4623097    0.6670733 
H    -3.7020060    1.5496603    0.8712557 
N    -1.2241781    2.0796026    1.9004050 
N    -1.3874041    3.7070318    0.1114937 
H    -1.8991107    3.9808413   -0.7420689 
H    -0.3921896    3.5581303   -0.1635345 
H    -1.4666136    1.1744173    2.3557873 
