15
Energy =
C    -3.9157914    2.5601686    0.1811740 
C    -2.7272352    1.5675958    0.3225296 
H    -3.6138276    3.5299202   -0.2641519 
H    -4.3442173    2.7783787    1.1818816 
H    -4.7439257    2.1808589   -0.4491461 
N    -3.0434013    0.2629247   -0.3026511 
H    -2.2999508   -0.0284862   -0.9801858 
H    -3.9225279    0.2737861   -0.8670828 
C    -1.3789065    2.1234883   -0.1479370 
H    -2.5754248    1.3850361    1.4134182 
N    -0.2056575    1.3253423   -0.0118812 
N    -1.1994523    3.5121877   -0.4108493 
H    -0.5538398    3.5696764   -1.2294421 
H    -0.6724572    3.8971223    0.4039033 
H    -0.2654232    0.3365072    0.3157698 
