15
Energy =
C    -3.8250263    2.5350687    0.1725667 
C    -2.7219887    1.5254598    0.4682701 
H    -3.6254574    3.4975037    0.6897606 
H    -4.8000860    2.1349006    0.5225374 
H    -3.9015680    2.7161142   -0.9199305 
N    -3.0550702    0.2827757   -0.2455580 
H    -3.0832049   -0.5087715    0.4385720 
H    -2.3153962    0.0293055   -0.9427519 
C    -1.3520709    2.0753562    0.0933932 
H    -2.7054430    1.3432944    1.5724189 
N    -1.0274212    2.3904281   -1.2594051 
N    -0.3799848    2.3082377    1.1095831 
H    -0.6824720    3.1709056    1.6125558 
H     0.5169972    2.5508788    0.6318165 
H    -1.7224486    2.2390975   -2.0215198 
