15
Energy =
C    -3.8652649    2.4307555   -0.2893421 
C    -2.7636779    1.6506771    0.4399885 
H    -3.7281609    3.5238740   -0.1410250 
H    -4.8616206    2.1473141    0.1119448 
H    -3.8463579    2.2160597   -1.3790626 
N    -2.9442156    0.2031451    0.2417209 
H    -3.7584810   -0.0244288   -0.3757349 
H    -3.1241463   -0.2603190    1.1626014 
C    -1.3814913    2.0893845   -0.0285784 
H    -2.8326317    1.8947503    1.5285967 
N    -0.6096679    2.9932574    0.7601858 
N    -0.7992121    1.5650770   -1.2232108 
H    -0.2535359    2.3412510   -1.6561384 
H    -1.5756372    1.3425899   -1.8814950 
H    -0.9735144    3.3836151    1.6553020 
