15
Energy =
C    -4.0464150    1.5743705    0.0171565 
C    -2.6377096    1.9419686    0.5318304 
H    -4.1049680    1.6167402   -1.0927554 
H    -4.8010383    2.2799994    0.4241632 
H    -4.3455510    0.5475486    0.3173977 
N    -2.0864239    0.8297362    1.3124982 
H    -2.0307436   -0.0249249    0.7077655 
H    -2.7287123    0.6074283    2.1089137 
C    -1.6951339    2.3183961   -0.6008006 
H    -2.7168065    2.8355159    1.1976094 
N    -1.0513075    3.5907728   -0.6279369 
N    -1.3543794    1.3622192   -1.5998235 
H    -0.3879879    1.0477097   -1.3648776 
H    -1.2836617    1.8874718   -2.4983406 
H    -1.2177071    4.3027819    0.1149459 
