15
Energy =
C    -3.7855799    2.1974218   -0.7355654 
C    -2.8454413    1.6737372    0.3595314 
H    -3.4840290    1.8094860   -1.7317750 
H    -3.7725753    3.3087240   -0.7604841 
H    -4.8268769    1.8679745   -0.5302585 
N    -2.8527424    0.1985263    0.3812130 
H    -1.9123718   -0.2020692    0.1536201 
H    -3.5313204   -0.2143284   -0.3013110 
C    -1.4344682    2.2497304    0.2233689 
H    -3.2426983    2.0268332    1.3414083 
N    -0.7947079    2.8588439    1.3403749 
N    -0.7206523    2.1966240   -1.0121042 
H    -1.2273955    2.8019569   -1.6922970 
H    -0.7557769    1.2153031   -1.3616649 
H    -1.2447385    2.8913460    2.2796571 
