15
Energy =
C    -3.9156705    2.3886380   -0.5438700 
C    -2.8836409    1.8048418    0.4340079 
H    -4.9448275    2.1226917   -0.2211674 
H    -3.7404256    1.9956125   -1.5679634 
H    -3.8435764    3.4974862   -0.5727816 
N    -3.1084163    0.3484173    0.5718300 
H    -2.2646760   -0.2304201    0.4025635 
H    -3.8281770   -0.0130867   -0.0977210 
C    -1.4649049    2.2530793    0.0471762 
H    -3.0638922    2.2714023    1.4321615 
N    -0.3337232    1.3847558   -0.0684165 
N    -1.2183056    3.6511325   -0.0728553 
H    -0.7144933    3.7811501   -0.9777503 
H    -0.5396017    3.8967393    0.6814230 
H    -0.3067223    0.3634874    0.1172089 
