15
Energy =
C    -3.7170466    2.5700370   -0.4418608 
C    -2.7846357    1.7058856    0.4264347 
H    -3.1629114    3.1366453   -1.2202789 
H    -4.2571643    3.3054294    0.1910073 
H    -4.4759206    1.9495104   -0.9664614 
N    -3.1542068    0.2971574    0.2547818 
H    -4.0997262    0.1409216    0.6772784 
H    -2.4910820   -0.2993398    0.8057037 
C    -1.3150360    1.9311551    0.0751748 
H    -2.9214321    1.9943342    1.4976500 
N    -0.4631813    2.6437308    0.9666779 
N    -0.7823882    1.5346367   -1.1883702 
H    -0.7039219    2.4035112   -1.7581169 
H    -1.4826594    0.9179629   -1.6567413 
H    -0.8010196    2.9888717    1.8900091 
