15
Energy =
C    -3.9284103    2.2689654   -0.5486273 
C    -2.8527686    1.7813302    0.4204837 
H    -3.7278516    1.8902176   -1.5734846 
H    -3.9619565    3.3784109   -0.5722985 
H    -4.9224675    1.8938443   -0.2230043 
N    -2.9900040    0.3269237    0.5548506 
H    -2.2662871   -0.0333220    1.2206547 
H    -2.8473859   -0.1401468   -0.3714603 
C    -1.4635749    2.2352283   -0.0200087 
H    -3.0347156    2.2507093    1.4180949 
N    -0.4457892    1.3251256   -0.4325750 
N    -1.1177539    3.6105783    0.0899709 
H    -0.4200919    3.8627965    0.8233292 
H    -1.6096065    4.2819642   -0.5380995 
H    -0.5981318    0.2994310   -0.5143487 
