15
Energy =
C    -3.8598195    2.5481273   -0.0566033 
C    -2.7151066    1.6344147    0.4120328 
H    -4.8389332    2.1639522    0.3002378 
H    -3.8848157    2.6004540   -1.1667500 
H    -3.7423144    3.5706583    0.3579344 
N    -3.0668440    0.2459435    0.0957064 
H    -3.1977312    0.1432802   -0.9382572 
H    -3.9669023   -0.0135829    0.5615256 
C    -1.3600243    1.9938574   -0.1922571 
H    -2.5884926    1.7326007    1.5170700 
N    -1.0138777    3.3395426   -0.5197992 
N    -0.3061405    1.0379566   -0.1566259 
H     0.3703534    1.3758264    0.5613974 
H     0.1786525    1.1037114   -1.0778783 
H    -1.6942456    4.1260571   -0.4747480 
