15
Energy =
C    -3.6871701    2.2952219   -0.9793646 
C    -2.8887721    1.8703404    0.2739554 
H    -3.0481879    2.7884517   -1.7417305 
H    -4.4947596    3.0029225   -0.6954457 
H    -4.1677643    1.4301116   -1.4844294 
N    -3.1711180    0.4607814    0.5738138 
H    -2.9772776   -0.1300317   -0.2698943 
H    -4.1895421    0.3523899    0.7939227 
C    -1.3882266    2.1478320    0.1409423 
H    -3.2177504    2.4866764    1.1470846 
N    -0.4201772    1.1039065    0.1879838 
N    -0.9065136    3.4909599    0.1012146 
H    -1.2653374    3.9848795    0.9466991 
H    -1.3030374    3.9528865   -0.7439204 
H    -0.6933953    0.1118121    0.3428016 
