15
Energy =
C    -3.8213020    2.2790934   -0.6764790 
C    -2.8447667    1.5699220    0.2597003 
H    -4.0180040    3.3132623   -0.3224461 
H    -4.7806603    1.7193322   -0.7030885 
H    -3.4183632    2.3218576   -1.7096581 
N    -2.6867766    0.1852267   -0.1960632 
H    -2.0418786   -0.3143409    0.4618911 
H    -2.2241030    0.1656386   -1.1343657 
C    -1.5153790    2.3024526    0.3549259 
H    -3.2845779    1.5631121    1.2883654 
N    -0.6765928    2.4782017   -0.7854983 
N    -1.1088570    2.8615528    1.6011126 
H    -1.6504009    3.7461209    1.7146237 
H    -0.1086173    3.1466463    1.5006337 
H    -0.9454143    2.1014536   -1.7186806 
