15
Energy =
C    -3.7966998    1.9659890   -0.6883972 
C    -2.8471281    1.6296446    0.4605706 
H    -4.8053178    1.5482064   -0.4872573 
H    -3.4189622    1.5175587   -1.6328483 
H    -3.8890779    3.0646088   -0.8203122 
N    -2.7941826    0.1688900    0.5811827 
H    -3.7163041   -0.1822124    0.9303410 
H    -2.0898557   -0.0874888    1.3136383 
C    -1.4688272    2.2349652    0.2159714 
H    -3.2332446    2.0758525    1.4092272 
N    -1.2845458    3.6471102    0.3010840 
N    -0.3593465    1.4177233   -0.1580782 
H     0.4371944    2.0513486   -0.3885376 
H    -0.6332713    0.9435147   -1.0460818 
H    -2.0753576    4.2771034    0.5545351 
