15
Energy =
C    -3.8884835    2.3583422   -0.2641621 
C    -2.7279954    1.6675056    0.4739557 
H    -3.5272727    3.0747354   -1.0346917 
H    -4.5230325    2.9184404    0.4543029 
H    -4.5337880    1.6203006   -0.7885578 
N    -2.8171508    0.2221308    0.2419894 
H    -3.6825628   -0.1437440    0.7052443 
H    -2.0136583   -0.2523714    0.7191750 
C    -1.3800055    2.2102513    0.0167198 
H    -2.8147860    1.8743191    1.5694870 
N    -0.8503210    1.8501680   -1.2532069 
N    -0.7022606    3.2074669    0.7771034 
H    -0.4685683    2.7877623    1.7029384 
H    -1.3709690    3.9935654    0.9309614 
H    -1.3543030    1.1478783   -1.8357993 
