15
Energy =
C    -3.9445057    2.4061891   -0.1412359 
C    -2.7632041    1.6347821    0.4485469 
H    -3.9630972    2.3124643   -1.2473888 
H    -3.8963890    3.4780460    0.1459590 
H    -4.8933565    1.9781500    0.2475789 
N    -2.8962351    0.2339567    0.0411423 
H    -2.1560601   -0.3269181    0.5269603 
H    -2.6905513    0.1547203   -0.9831089 
C    -1.3895411    2.1945580    0.0826397 
H    -2.8382019    1.6999674    1.5614116 
N    -1.2014410    3.1826197   -0.9316442 
N    -0.2436724    1.7163530    0.7836392 
H    -0.2450150    2.1922890    1.7119595 
H     0.6005096    2.0688574    0.2787715 
H    -1.9822557    3.5617655   -1.5061606 
