15
Energy =
C    -3.5416983    2.7411034   -0.6746964 
C    -2.8706254    1.8788441    0.3872895 
H    -3.4576057    2.2495079   -1.6676513 
H    -3.0643713    3.7425083   -0.7260343 
H    -4.6192825    2.8625362   -0.4372331 
N    -3.5599629    0.5794141    0.4002230 
H    -3.9352548    0.3926621    1.3593261 
H    -2.9086586   -0.2101368    0.1816340 
C    -1.3719592    1.7510116    0.1290847 
H    -3.0023487    2.3913741    1.3713581 
N    -0.4344204    2.0131521    1.1720571 
N    -0.8834502    1.4192563   -1.1719706 
H    -1.1485273    0.4266888   -1.3476365 
H     0.1599745    1.4455832   -1.1357933 
H    -0.7463520    2.2685606    2.1334360 
