15
Energy =
C    -3.8993562    2.3453257   -0.2284912 
C    -2.6917041    1.7644297    0.5267257 
H    -4.8512782    2.0583001    0.2655408 
H    -3.9152990    1.9584696   -1.2708960 
H    -3.8771443    3.4534402   -0.2369635 
N    -2.9150521    0.3186338    0.6996808 
H    -3.9134907    0.1200009    0.9451218 
H    -2.3830347   -0.0091790    1.5390172 
C    -1.3607360    2.0461081   -0.1962589 
H    -2.6236863    2.2629999    1.5242900 
N    -1.1621241    3.2493722   -0.9379765 
N    -0.2118538    1.2118675   -0.0241969 
H    -0.0650544    0.7440621   -0.9444596 
H    -0.4080502    0.4573997    0.6631070 
H    -1.8839701    3.9904139   -1.0407599 
