15
Energy =
C    -3.8842253    2.4692193   -0.4262550 
C    -2.8141882    1.8218183    0.4708599 
H    -4.5621107    1.7030208   -0.8611485 
H    -3.4380844    3.0462556   -1.2647211 
H    -4.5115343    3.1646982    0.1701669 
N    -3.0474623    0.3738724    0.5224394 
H    -2.3665087   -0.0527230    1.1953718 
H    -2.8430932   -0.0535050   -0.4109009 
C    -1.3986509    2.1521904    0.0202709 
H    -2.9203153    2.2353817    1.5053666 
N    -0.9323918    1.7927842   -1.2789031 
N    -0.5154586    2.8335661    0.9072677 
H    -0.8029851    3.8364514    0.8935587 
H     0.4382682    2.8000474    0.4816567 
H    -1.5556212    1.3008564   -1.9540578 
