15
Energy =
C    -3.9047727    2.5573819   -0.1115620 
C    -2.7732209    1.6647900    0.3945721 
H    -3.9121282    2.5727207   -1.2216141 
H    -3.7804951    3.5962977    0.2609831 
H    -4.8812122    2.1656688    0.2437278 
N    -3.0813435    0.2961500   -0.0355564 
H    -2.5289817   -0.3867617    0.5321482 
H    -2.8179986    0.1704643   -1.0423160 
C    -1.4096536    2.1519981   -0.0913402 
H    -2.7547575    1.7156781    1.5099805 
N    -0.2952673    1.2659208   -0.1752565 
N    -1.1414641    3.5495527   -0.1419247 
H    -0.5441847    3.6989532   -0.9850944 
H    -0.5384377    3.7614214    0.6833868 
H    -0.3855228    0.2399559   -0.0221902 
