15
Energy =
C    -3.9895730    1.3722379    0.1809836 
C    -2.6318297    2.0320292    0.5060373 
H    -4.1135667    0.3965005    0.6972632 
H    -4.1049255    1.1788577   -0.9082368 
H    -4.8239502    2.0324214    0.4988128 
N    -1.8808564    1.1914608    1.4441112 
H    -1.7222663    0.2482416    1.0146566 
H    -2.4441729    1.0474245    2.3148295 
C    -1.8113656    2.2992084   -0.7463459 
H    -2.8167173    3.0219990    0.9893757 
N    -1.3733569    3.6174293   -1.0697852 
N    -1.3740477    1.2175903   -1.5632141 
H    -0.3595378    1.1013917   -1.3503671 
H    -1.4324692    1.5514524   -2.5497929 
H    -1.6132738    4.4350479   -0.4693930 
