15
Energy =
C    -3.7363087    2.8389667    0.4229092 
C    -2.8524188    1.5941624    0.3898059 
H    -4.7808944    2.5521628    0.6676801 
H    -3.7309926    3.3405091   -0.5686816 
H    -3.3687498    3.5554590    1.1876727 
N    -3.4302500    0.6390648   -0.5609058 
H    -2.8354040   -0.2224621   -0.5845992 
H    -3.4141473    1.0470440   -1.5255563 
C    -1.4116397    1.9480878    0.0436402 
H    -2.8639136    1.1371411    1.4075724 
N    -0.3541365    1.6618350    0.9571163 
N    -1.1006583    2.6018502   -1.1864313 
H    -1.1113515    1.8616230   -1.9207402 
H    -0.1107266    2.9288277   -1.1220752 
H    -0.5326180    1.1971301    1.8732987 
