15
Energy =
C    -3.9637776    2.4683754    0.0447547 
C    -2.7762113    1.5530391    0.3734577 
H    -3.8209347    3.4702079    0.5037581 
H    -4.9044380    2.0319663    0.4426122 
H    -4.0659698    2.5891877   -1.0557724 
N    -2.9477597    0.2402581   -0.2683996 
H    -3.8620782    0.1520630   -0.7704652 
H    -2.9229523   -0.5141594    0.4557573 
C    -1.4571744    2.1764086   -0.0590388 
H    -2.7425815    1.4294154    1.4828778 
N    -0.4443270    2.4729859    0.9028014 
N    -1.2174363    2.4926180   -1.4311775 
H    -0.2027257    2.7159498   -1.5289386 
H    -1.7352386    3.3759701   -1.6241284 
H    -0.5673619    2.2419717    1.9114303 
