15
Energy =
C    -3.8763732    2.5192950   -0.1216917 
C    -2.7529054    1.6362537    0.4324714 
H    -4.8670664    2.1256947    0.1891672 
H    -3.8394533    2.5212738   -1.2328873 
H    -3.8017245    3.5567543    0.2615833 
N    -3.0804457    0.2489681    0.0804183 
H    -3.9401555   -0.0429648    0.6005428 
H    -2.3185055   -0.3841074    0.4205617 
C    -1.3731053    2.0326186   -0.0995558 
H    -2.7120165    1.7476344    1.5423658 
N    -1.0130430    3.4003076   -0.2945417 
N    -0.3129495    1.0813590   -0.0796032 
H     0.3455631    1.3923405    0.6677124 
H     0.1915430    1.1987788   -0.9855286 
H    -1.6909227    4.1842835   -0.1995329 
