15
Energy =
C    -3.6844984    2.2734655   -0.7665028 
C    -2.8354595    1.7922357    0.4249742 
H    -3.0573387    2.6757428   -1.5918026 
H    -4.3842141    3.0720652   -0.4424593 
H    -4.2862412    1.4435215   -1.1972108 
N    -3.1034803    0.3644781    0.6370582 
H    -4.0857197    0.2522060    0.9810003 
H    -2.4857437    0.0120247    1.4070880 
C    -1.3510027    2.0706899    0.2038771 
H    -3.1212788    2.3643954    1.3416396 
N    -0.8837064    3.4151128    0.1165277 
N    -0.4104060    1.0063489    0.0654229 
H     0.5188420    1.4323528   -0.1460919 
H    -0.6977785    0.4785733   -0.7875784 
H    -1.5434005    4.2174665    0.2069071 
