15
Energy =
C    -3.5407186    2.5065455   -0.9702646 
C    -2.8321109    2.1645407    0.3463352 
H    -3.5761923    1.6252723   -1.6450659 
H    -3.0064497    3.3277502   -1.4955839 
H    -4.5819321    2.8387022   -0.7720388 
N    -3.5343096    1.0632031    1.0113407 
H    -3.5749242    0.2270602    0.3828388 
H    -4.5230018    1.3459687    1.2086401 
C    -1.3616012    1.8268306    0.1299920 
H    -2.8644710    3.0614080    1.0120581 
N    -0.9676061    0.7427500   -0.7055060 
N    -0.3402744    2.6061110    0.7484899 
H    -0.4909269    2.5489790    1.7797965 
H    -0.4711935    3.5955138    0.4465370 
H    -1.6744710    0.1310287   -1.1625079 
