15
Energy =
C    -3.9109232    2.3206769    0.3888153 
C    -2.6714301    1.3913224    0.3374220 
H    -4.6946494    2.0673073   -0.3528985 
H    -3.6345035    3.3835380    0.2126162 
H    -4.3798450    2.2665725    1.3943598 
N    -2.8074270    0.3456845   -0.6939220 
H    -3.7062624    0.3924780   -1.2243036 
H    -2.7777644   -0.5974687   -0.2411999 
C    -1.3917173    2.1757423    0.1139997 
H    -2.5551093    0.9114827    1.3413861 
N    -1.1104263    2.7630939   -1.1536391 
N    -0.6030403    2.5677814    1.2325591 
H    -0.7822852    3.5868813    1.3685858 
H     0.3909448    2.4834193    0.9252251 
H    -1.7203987    2.5411116   -1.9697317 
