15
Energy =
C    -3.8415563    2.3990274   -0.5650686 
C    -2.8265176    1.8543143    0.4639348 
H    -3.3379178    2.8927382   -1.4247701 
H    -4.4986593    3.1549956   -0.0851114 
H    -4.4935303    1.5977201   -0.9733347 
N    -3.0014994    0.4066952    0.6279556 
H    -2.8964468   -0.0771283   -0.2941913 
H    -3.9687325    0.2107110    0.9777557 
C    -1.3917521    2.1894373    0.0960709 
H    -3.0045218    2.3484584    1.4520670 
N    -0.8032296    1.7130645   -1.1119714 
N    -0.5861309    2.9387100    0.9983886 
H    -0.0682521    3.6350791    0.4184080 
H     0.1297742    2.2703440    1.3598504 
H    -1.3525281    1.1235820   -1.7723069 
