15
Energy =
C    -3.8790737    2.5330565   -0.1099317 
C    -2.7377890    1.5660653    0.2747082 
H    -3.5624425    3.5160207   -0.4847560 
H    -4.5413281    2.7028592    0.7651302 
H    -4.5164699    2.0962273   -0.9104530 
N    -3.0216754    0.2956283   -0.4070932 
H    -2.6058829   -0.5080246    0.1169122 
H    -2.6027150    0.3064462   -1.3686215 
C    -1.2885008    2.0394284    0.0220457 
H    -2.7956442    1.4034179    1.3795202 
N    -0.9476319    3.3894850   -0.2947582 
N    -0.1936267    1.1916336    0.3765865 
H    -0.5042458    0.1999863    0.4296293 
H     0.1094487    1.4802829    1.3321642 
H    -1.5977862    4.1860404   -0.4324174 
