15
Energy =
C    -3.8874208    2.2369308    0.5536652 
C    -2.6313581    1.3708725    0.4666774 
H    -4.7360672    1.6422989    0.9523588 
H    -4.1648709    2.6104825   -0.4557769 
H    -3.7193668    3.1040258    1.2273121 
N    -2.8949999    0.2672700   -0.4615039 
H    -3.6413631   -0.3456820   -0.0570582 
H    -2.0368209   -0.3305215   -0.5257900 
C    -1.4385928    2.1954062    0.0141668 
H    -2.3931333    0.9677457    1.4817134 
N    -1.3071701    2.6045733   -1.3459506 
N    -0.5017200    2.6731990    0.9786922 
H    -0.9840135    3.4346907    1.5040881 
H     0.2800891    3.1290349    0.4567957 
H    -1.9973127    2.2723773   -2.0539556 
