15
Energy =
C    -3.9517013    2.3094394   -0.3516895 
C    -2.7073378    1.8496096    0.4410558 
H    -4.5863888    1.4551497   -0.6705757 
H    -3.6839520    2.8649545   -1.2751134 
H    -4.5817770    2.9724156    0.2785028 
N    -2.8217636    0.4157720    0.7370723 
H    -2.9831304   -0.1205812   -0.1488170 
H    -3.6586981    0.2556910    1.3464264 
C    -1.3946849    2.1937777   -0.2691449 
H    -2.6644076    2.4045029    1.4106640 
N    -0.4759219    1.1877475   -0.6861371 
N    -0.9905638    3.5556564   -0.4117630 
H    -0.9741671    3.9843796    0.5387014 
H    -1.7083167    4.0497684   -0.9829066 
H    -0.6495126    0.1784398   -0.5018322 
