15
Energy =
C    -3.8491126    2.4814888   -0.2486836 
C    -2.7682828    1.6339511    0.4350042 
H    -3.8430180    2.3185532   -1.3474766 
H    -3.6772979    3.5615321   -0.0494827 
H    -4.8515240    2.2100177    0.1457443 
N    -2.9948293    0.2037298    0.1696288 
H    -3.8191883    0.0310421   -0.4522114 
H    -3.1841775   -0.2971458    1.0687799 
C    -1.3756798    2.0517460   -0.0218450 
H    -2.8237963    1.8278828    1.5343793 
N    -0.5717643    2.8927537    0.8035573 
N    -0.8166976    1.5675384   -1.2442199 
H    -0.2491917    2.3462054   -1.6432775 
H    -1.6033530    1.4013441   -1.9069566 
H    -0.9183710    3.2507660    1.7188115 
