15
Energy =
C    -3.7853772    2.5081840   -0.6857036 
C    -2.8850172    1.7978596    0.3410292 
H    -4.5162057    3.1595346   -0.1622738 
H    -4.3629106    1.7811051   -1.2954029 
H    -3.1995270    3.1462392   -1.3817772 
N    -3.1536304    0.3560872    0.2786630 
H    -2.6113331   -0.1313730    1.0301383 
H    -2.8460383   -0.0250785   -0.6469912 
C    -1.4133819    2.1615578    0.1536890 
H    -3.1538292    2.1659110    1.3615728 
N    -0.3974411    1.1934177   -0.1069387 
N    -1.0098678    3.5101928    0.3584136 
H    -0.3920318    3.7531034   -0.4473272 
H    -0.3946476    3.5037995    1.2018725 
H    -0.5922199    0.1774870   -0.2215591 
