15
Energy =
C    -3.3257013    2.7793357    0.8353395 
C    -2.8278051    1.4222605    0.3406811 
H    -2.6003355    3.2231990    1.5501237 
H    -4.3037287    2.6665482    1.3476080 
H    -3.4594974    3.4720301   -0.0235424 
N    -3.8141417    0.8884610   -0.6035197 
H    -4.7042102    0.6856201   -0.0908941 
H    -3.4729355   -0.0339960   -0.9642327 
C    -1.4608656    1.5534902   -0.3060996 
H    -2.7143412    0.7302743    1.2117451 
N    -1.3124676    2.1577230   -1.5880503 
N    -0.2926988    1.3078989    0.4681425 
H     0.1409208    2.2431113    0.6300319 
H     0.3625480    0.7872284   -0.1557005 
H    -2.1609987    2.4052273   -2.1425938 
