15
Energy =
C    -3.6974714    2.7671614   -0.2796165 
C    -2.8266009    1.7876523    0.4982127 
H    -3.6877430    2.5211360   -1.3616021 
H    -3.3365078    3.8082800   -0.1376271 
H    -4.7462851    2.6986794    0.0783975 
N    -3.3494034    0.4349588    0.2507661 
H    -3.5791651   -0.0200675    1.1650086 
H    -2.6363517   -0.1795853   -0.2088042 
C    -1.3583445    1.9335589    0.1224589 
H    -2.9110913    2.0434977    1.5843239 
N    -0.9088710    1.6790764   -1.2074795 
N    -0.4165410    2.3646857    1.1026009 
H     0.4933774    2.5247406    0.6146569 
H    -0.2658020    1.5544390    1.7426505 
H    -1.5802416    1.3709382   -1.9429018 
