15
Energy =
C    -3.6714088    2.8381300   -0.1748266 
C    -2.8605115    1.6688269    0.3821385 
H    -3.5420125    2.9177159   -1.2744518 
H    -3.3701890    3.7898864    0.3119986 
H    -4.7497976    2.6629550    0.0271323 
N    -3.3450040    0.4457167   -0.2624000 
H    -2.9093305   -0.3765624    0.2191642 
H    -3.0015099    0.4202658   -1.2517159 
C    -1.3472918    1.8167064    0.2387474 
H    -3.0600385    1.6074380    1.4797105 
N    -0.7332780    2.8592111   -0.5182978 
N    -0.4995727    0.9047563    0.9255732 
H     0.0911676    1.4829338    1.5631596 
H     0.1476650    0.5149590    0.2054342 
H    -1.2755086    3.5762822   -1.0431759 
