15
Energy =
C    -3.8692614    2.5143369   -0.0032279 
C    -2.7302124    1.5385000    0.3243538 
H    -4.8467438    2.0777864    0.2931504 
H    -3.9017527    2.7297692   -1.0929467 
H    -3.7399999    3.4646676    0.5580041 
N    -2.9618869    0.2802308   -0.3915614 
H    -2.9818871    0.4622782   -1.4237831 
H    -3.8958582   -0.1134374   -0.1276724 
C    -1.3276846    2.0710254    0.0223269 
H    -2.7471221    1.3407273    1.4239864 
N    -1.0972384    3.3482841   -0.5697820 
N    -0.1875932    1.2834944    0.3565083 
H    -0.2884910    0.3802849   -0.1569838 
H    -0.2423853    1.0720533    1.3753787 
H    -1.8606996    3.9921215   -0.8603734 
