15
Energy =
C    -3.6419372    2.8122386   -0.0772712 
C    -2.8156565    1.6197191    0.4004526 
H    -3.5892822    2.8873574   -1.1848721 
H    -3.2664256    3.7580957    0.3673821 
H    -4.7052188    2.6832095    0.2147557 
N    -3.3437630    0.4176554   -0.2515521 
H    -4.2942172    0.2110644    0.1345492 
H    -2.7405448   -0.3999073    0.0046971 
C    -1.3373803    1.8302976    0.0942563 
H    -2.9110260    1.5226928    1.5088317 
N    -0.5792895    2.7744957    0.8481576 
N    -0.7048782    1.1494161   -0.9894264 
H     0.2708828    1.5129946   -1.0627449 
H    -1.2029577    1.4518575   -1.8544607 
H    -1.0105145    3.3043630    1.6358682 
