15
Energy =
C    -3.8467616    2.2105395   -0.6760020 
C    -2.7966786    1.7873874    0.3605038 
H    -4.8412439    1.7898028   -0.4152842 
H    -3.5632197    1.8466393   -1.6875679 
H    -3.9471316    3.3158952   -0.7062270 
N    -2.8393656    0.3267570    0.5019565 
H    -2.7350763   -0.1240819   -0.4387875 
H    -3.7728292    0.0375054    0.8786190 
C    -1.3968484    2.2885698   -0.0022903 
H    -3.0404146    2.2566832    1.3454089 
N    -0.2677156    1.4204928    0.0055547 
N    -1.1607015    3.6757437   -0.2375853 
H    -1.5903479    4.2135586    0.5458439 
H    -1.6474376    3.9298114   -1.1234649 
H    -0.3586299    0.4183130    0.2738749 
