15
Energy =
C    -3.5972387    1.6079267   -1.1931876 
C    -2.9270706    1.9614908    0.1463604 
H    -4.0044326    0.5734094   -1.1801696 
H    -2.8949444    1.6878312   -2.0511223 
H    -4.4486326    2.2937160   -1.3881816 
N    -3.0629999    0.8228332    1.0609197 
H    -2.6800836    1.0898645    1.9986707 
H    -2.4774546    0.0227298    0.7231790 
C    -1.4688987    2.3788099   -0.0234132 
H    -3.4702900    2.8337901    0.5869850 
N    -0.5188542    1.5032049   -0.6217802 
N    -1.0170490    3.6467555    0.4445605 
H    -1.2368628    3.7037142    1.4629722 
H    -1.5645114    4.3797153   -0.0565608 
H    -0.8002275    0.5664795   -0.9799168 
