15
Energy =
C    -3.8477387    2.2023838   -0.7613423 
C    -2.9117325    1.7755506    0.3750364 
H    -3.4762703    1.8094397   -1.7323963 
H    -3.8935041    3.3113946   -0.8250481 
H    -4.8744088    1.8204696   -0.5804482 
N    -2.8801479    0.3054863    0.4853005 
H    -3.5008279   -0.1649310   -0.2153756 
H    -3.2319263    0.0200776    1.4291146 
C    -1.5183844    2.3508086    0.1649906 
H    -3.2900059    2.2219983    1.3276606 
N    -0.4258668    1.5367980   -0.2598366 
N    -1.2965013    3.7449270    0.3766264 
H    -0.3363593    3.9656256    0.0295802 
H    -1.2719943    3.8853398    1.4099229 
H    -0.5658724    0.5180328   -0.4292493 
