15
Energy =
C    -3.9685966    2.4989383   -0.0510842 
C    -2.8122669    1.5385145    0.3278072 
H    -3.5959934    3.4365544   -0.5159371 
H    -4.5313887    2.7904477    0.8611987 
H    -4.7009929    2.0592722   -0.7577559 
N    -2.9128594    0.2486875   -0.3783637 
H    -3.7550474    0.1631794   -0.9900520 
H    -2.9550605   -0.5348774    0.3135460 
C    -1.4481325    2.1651138    0.0681089 
H    -2.8764738    1.3556266    1.4278099 
N    -0.6334818    2.6062485    1.1550380 
N    -0.9545715    2.3073120   -1.2656926 
H     0.0023767    2.7194932   -1.2084357 
H    -1.5588974    3.0104314   -1.7405548 
H    -0.9475718    2.5123975    2.1441661 
