15
Energy =
C    -3.8019535    1.9598641    0.7891641 
C    -2.4912487    1.2942715    0.3340598 
H    -4.0028377    1.7219021    1.8547187 
H    -4.6656060    1.6027134    0.1875100 
H    -3.7686259    3.0663367    0.6850246 
N    -2.7782859    0.4100720   -0.8012663 
H    -3.3396269   -0.4051086   -0.4596480 
H    -1.8769067    0.0076697   -1.1544436 
C    -1.4419128    2.3294111   -0.0322233 
H    -2.0682103    0.6944172    1.1785363 
N    -1.5542934    3.0858603   -1.2356260 
N    -0.4055042    2.6459577    0.8953078 
H    -0.8548924    3.1963829    1.6594897 
H     0.2540514    3.2991358    0.4157727 
H    -2.3287005    2.8790253   -1.9033140 
