15
Energy =
C    -3.7930717    2.3784994   -0.6824193 
C    -2.8356721    1.7992359    0.3894943 
H    -3.2395540    2.8808600   -1.5044172 
H    -4.4668426    3.1316910   -0.2216480 
H    -4.4365222    1.6172049   -1.1675594 
N    -3.0533320    0.3520430    0.5847853 
H    -3.7983466   -0.0538644   -0.0258222 
H    -3.3479889    0.1690032    1.5727966 
C    -1.3714187    2.0995664    0.0636542 
H    -3.0306985    2.3279571    1.3558815 
N    -0.4795650    1.0754109   -0.3651739 
N    -0.8823423    3.4416573    0.0794812 
H    -1.4501734    4.0030698    0.7501641 
H    -1.0420822    3.8287861   -0.8752285 
H    -0.7977120    0.0851775   -0.4211182 
