15
Energy =
C    -3.8021025    2.6039416    0.3594076 
C    -2.7843437    1.4675610    0.3227814 
H    -4.8133597    2.1875227    0.5520836 
H    -3.8341655    3.1181030   -0.6245400 
H    -3.5575676    3.3288534    1.1645490 
N    -3.1919632    0.5618397   -0.7625644 
H    -3.4573957   -0.3648158   -0.3551809 
H    -2.3960832    0.3698461   -1.4168641 
C    -1.3331492    1.9281088    0.1803793 
H    -2.8314523    0.9387703    1.3069477 
N    -0.9650065    3.2804026   -0.0915245 
N    -0.2914131    0.9852373    0.4020266 
H     0.2257192    1.3167454    1.2461158 
H     0.3675770    1.0900756   -0.4007102 
H    -1.6614411    4.0339361   -0.2667634 
