15
Energy =
C    -3.7011087    2.7322600   -0.2332354 
C    -2.8757872    1.6231870    0.4150248 
H    -3.4712926    2.8194505   -1.3148496 
H    -3.4969869    3.7062205    0.2602038 
H    -4.7821042    2.4989153   -0.1268866 
N    -3.2094038    0.3530338   -0.2356945 
H    -2.7085545   -0.4185914    0.2655861 
H    -2.8513124    0.3478043   -1.2185441 
C    -1.3834917    1.9196040    0.3696215 
H    -3.1662391    1.5611480    1.4926538 
N    -0.6949820    2.0903955   -0.8684597 
N    -0.6455611    2.0099178    1.5859007 
H    -0.8946954    2.9282968    2.0138446 
H     0.3664686    2.0712193    1.3335754 
H    -1.1942582    2.0320959   -1.7804328 
