15
Energy =
C    -3.6534118    2.9579332    0.2357575 
C    -2.7989817    1.7232194    0.5187352 
H    -3.2035091    3.8596616    0.7037182 
H    -4.6704090    2.8087709    0.6576175 
H    -3.7597029    3.1263208   -0.8555274 
N    -3.4185383    0.5667688   -0.1353967 
H    -2.8407782   -0.2866413    0.0538831 
H    -3.4432940    0.7007615   -1.1727947 
C    -1.3410450    1.9210690    0.1019865 
H    -2.8149503    1.5519882    1.6218674 
N    -0.3080797    1.9148135    1.0823596 
N    -0.9672141    2.1166238   -1.2617360 
H    -1.4906696    2.9403285   -1.6260815 
H    -1.2578642    1.2704044   -1.7956622 
H    -0.5109216    1.7767291    2.0951408 
