15
Energy =
C    -3.9053167    2.3909290   -0.4438062 
C    -2.8163621    1.5513880    0.2453904 
H    -4.2121624    3.2503087    0.1871372 
H    -4.8225247    1.7881528   -0.6112415 
H    -3.5412498    2.7448384   -1.4326143 
N    -2.6751356    0.3011430   -0.5169875 
H    -3.6140662   -0.1298635   -0.6884435 
H    -2.1745044   -0.4076726    0.0650816 
C    -1.4576923    2.2697817    0.3729841 
H    -3.1512285    1.3255648    1.2871732 
N    -0.2917059    1.5305836    0.7286236 
N    -1.3145096    3.6943950    0.3453149 
H    -2.2302122    4.1779561    0.2781283 
H    -0.7798534    3.9123526   -0.5234462 
H    -0.2975324    0.4977228    0.8461721 
