15
Energy =
C    -3.8128191    2.5783231   -0.1975249 
C    -2.7625367    1.6923198    0.4602110 
H    -4.8140697    2.3530676    0.2249065 
H    -3.8428852    2.3782008   -1.2900202 
H    -3.5786569    3.6511606   -0.0320433 
N    -3.1565661    0.2939553    0.2287045 
H    -3.2731941   -0.1910196    1.1488164 
H    -2.4171155   -0.2366177   -0.2881814 
C    -1.3658609    2.0096856   -0.0676208 
H    -2.7692280    1.9149083    1.5548432 
N    -0.2938898    2.2740995    0.8350664 
N    -1.1210550    2.1026077   -1.4714245 
H    -1.1740830    1.1328796   -1.8494425 
H    -0.1321054    2.4141546   -1.5966803 
H    -0.4271124    2.2311826    1.8682307 
