15
Energy =
C    -3.6859871    2.7862691    0.3161320 
C    -2.7338650    1.5708890    0.3345305 
H    -3.1968533    3.6934667   -0.1015476 
H    -4.0083732    3.0325009    1.3504098 
H    -4.6033797    2.5943366   -0.2804762 
N    -3.3056338    0.4731951   -0.4529691 
H    -3.5399118    0.8066145   -1.4177466 
H    -4.2023583    0.1621671   -0.0103069 
C    -1.3312294    1.9270536   -0.1516413 
H    -2.6211947    1.2197438    1.3895068 
N    -0.2720306    2.1209495    0.7808253 
N    -1.0498740    2.1180607   -1.5372087 
H    -1.7650757    2.7738496   -1.9172262 
H    -1.1822676    1.1926260   -1.9999256 
H    -0.4199888    2.0166188    1.8063975 
