15
Energy =
C    -2.8863478    1.5290294   -1.5588131 
C    -2.7648724    1.5241452   -0.0205785 
H    -2.2746051    2.2814781   -2.0756167 
H    -3.9439747    1.6889827   -1.8560106 
H    -2.5756413    0.5468109   -1.9788953 
N    -2.4231987    0.1457324    0.3765586 
H    -3.2410835   -0.2900704    0.8624815 
H    -1.6330903    0.1268148    1.0648673 
C    -1.8210961    2.5546032    0.6200741 
H    -3.7664399    1.7935388    0.3988955 
N    -1.1723842    3.6133336   -0.0870368 
N    -1.7142824    2.5684103    2.0396929 
H    -2.1201885    3.4773629    2.3538803 
H    -0.6931871    2.6180403    2.2520239 
H    -1.2249867    3.7967506   -1.1074203 
