15
Energy =
C    -3.7139212    2.5942087   -0.5599664 
C    -2.8144583    1.7778522    0.3854306 
H    -4.3147131    3.3243026    0.0226880 
H    -4.4300469    1.9411342   -1.1042943 
H    -3.1290778    3.1671195   -1.3109774 
N    -3.1925209    0.3627209    0.3019983 
H    -2.5950843   -0.1931301    0.9593788 
H    -3.0120994   -0.0031707   -0.6621058 
C    -1.3272132    1.9984120    0.1079136 
H    -3.0086173    2.1256156    1.4295193 
N    -0.5359686    2.7718944    1.0040343 
N    -0.6932906    1.4581944   -1.0511081 
H    -1.2746523    1.7041248   -1.8803796 
H    -0.6894298    0.4207784   -0.9502629 
H    -0.9410241    3.2102529    1.8581713 
