15
Energy =
C    -3.9579050    2.3334657   -0.3531759 
C    -2.7714884    1.7794703    0.4575092 
H    -4.5938382    1.5165566   -0.7561695 
H    -3.6264409    2.9564874   -1.2108717 
H    -4.6018287    2.9609532    0.2983578 
N    -2.9296001    0.3259156    0.5983169 
H    -2.1244040   -0.0589418    1.1469206 
H    -2.9256952   -0.1329097   -0.3424352 
C    -1.4255303    2.1997760   -0.1290883 
H    -2.7960096    2.2338040    1.4790937 
N    -0.5580864    1.2914082   -0.8085648 
N    -1.0050712    3.5533517    0.0179080 
H    -1.3765537    4.0651885   -0.8114936 
H     0.0348936    3.5638211   -0.0816251 
H    -0.7883502    0.2869801   -0.9529436 
