15
Energy =
C    -3.6397015    2.5792152   -0.8063794 
C    -2.9236220    1.9028139    0.3606681 
H    -4.7376318    2.4627293   -0.6850681 
H    -3.3475553    2.1189784   -1.7724108 
H    -3.3955972    3.6627600   -0.8335632 
N    -3.3021013    0.4866105    0.3835730 
H    -2.8646943    0.0310468    1.2191204 
H    -2.9193162   -0.0027376   -0.4585975 
C    -1.4164649    2.0959971    0.2915041 
H    -3.2742985    2.3872861    1.3052625 
N    -0.6557437    1.6218929   -0.8191584 
N    -0.7454156    2.7783054    1.3489176 
H     0.2482116    2.9132800    1.0552250 
H    -0.7230126    2.1195630    2.1579598 
H    -1.1100668    1.1273578   -1.6153814 
