15
Energy =
C    -3.9289845    2.2743783    0.4331546 
C    -2.6265613    1.4620312    0.4114310 
H    -3.8036368    3.1918228    1.0473717 
H    -4.7471474    1.6742749    0.8851355 
H    -4.2344147    2.5572941   -0.5970068 
N    -2.8427634    0.2342637   -0.3596313 
H    -3.1376926    0.4794130   -1.3352244 
H    -3.6201638   -0.3207890    0.0697036 
C    -1.4095685    2.2197447   -0.1257658 
H    -2.3739024    1.1882100    1.4640354 
N    -1.4896629    3.5516902   -0.6305278 
N    -0.1293401    1.5932355   -0.1174595 
H    -0.2246155    0.7189203   -0.6794495 
H     0.0721389    1.3121695    0.8656374 
H    -2.3781168    4.0893005   -0.6905180 
