15
Energy =
C    -3.3882753    3.1895964   -0.0342778 
C    -2.8619778    1.8149489    0.4085743 
H    -2.6636777    3.7304846   -0.6803183 
H    -3.6001208    3.8271974    0.8490964 
H    -4.3311288    3.0863450   -0.6138451 
N    -3.7918928    0.7870084   -0.0888522 
H    -4.1682592    0.2348502    0.7168743 
H    -3.3154721    0.0998588   -0.7181972 
C    -1.4230897    1.5734822   -0.0467353 
H    -2.8555074    1.7997061    1.5263083 
N    -0.4289556    1.1579794    0.8892106 
N    -1.0423897    1.7919879   -1.4070793 
H    -1.5330423    1.0722114   -1.9791750 
H    -0.0205369    1.5924821   -1.4885712 
H    -0.6583902    0.9935885    1.8927410 
