15
Energy =
C    -3.9538190    1.6249639   -0.2738096 
C    -2.6833058    1.8973575    0.5413137 
H    -3.7581128    0.8391315   -1.0363541 
H    -4.2784974    2.5487776   -0.7992813 
H    -4.7770920    1.2898760    0.3915476 
N    -2.2522923    0.6793004    1.2482831 
H    -2.9088592   -0.1229275    1.1002280 
H    -2.2312265    0.8618236    2.2784320 
C    -1.5638023    2.4010200   -0.3544099 
H    -2.9167072    2.7049801    1.2766884 
N    -0.9890864    3.6912958   -0.1490856 
N    -1.0744569    1.5905016   -1.4225628 
H    -0.6233903    0.7661687   -0.9692495 
H    -0.3099802    2.1227399   -1.8933611 
H    -1.3141769    4.3194574    0.6163514 
