15
Energy =
C    -3.8157007    2.7293457    0.2344830 
C    -2.5646719    1.8967964    0.5907703 
H    -3.9574466    3.5334321    0.9873205 
H    -4.7330690    2.1013476    0.2667874 
H    -3.8013507    3.2037209   -0.7565694 
N    -3.0322047    0.5769812    1.0315169 
H    -2.2532250    0.0796223    1.5246858 
H    -3.2862562    0.0005384    0.1943083 
C    -1.4597294    1.7702482   -0.4689555 
H    -2.0604438    2.3979192    1.4546604 
N    -1.4504228    2.4807427   -1.7109239 
N    -0.3105224    0.9858341   -0.1479770 
H     0.4396357    1.2174091   -0.8374213 
H    -0.5731496   -0.0066382   -0.3322559 
H    -2.1567402    3.1690747   -2.0342875 
