15
Energy =
C    -3.9910175    2.1845929   -0.3654784 
C    -2.7268874    1.7136982    0.3936744 
H    -3.8459010    2.9303666   -1.1571157 
H    -4.7228105    2.6091118    0.3539908 
H    -4.4995684    1.3247848   -0.8551002 
N    -2.7335335    0.2457690    0.3495052 
H    -2.1251046   -0.1454368    1.1044323 
H    -2.3331073   -0.0742707   -0.5655653 
C    -1.3431402    2.2736989   -0.0096984 
H    -2.8519140    2.0346309    1.4576250 
N    -0.2032723    1.8517554    0.7353424 
N    -1.1138413    3.3231635   -0.9572955 
H    -0.7313510    4.1298877   -0.4168669 
H    -1.9719345    3.6556944   -1.4252935 
H    -0.2690226    1.1563693    1.5076356 
