15
Energy =
C    -3.7753164    2.5747789   -0.3504121 
C    -2.7749760    1.6969378    0.4244104 
H    -4.5628447    1.9621378   -0.8401908 
H    -3.2846102    3.1751923   -1.1455803 
H    -4.2762918    3.2844855    0.3412992 
N    -3.0937493    0.2852400    0.1858666 
H    -4.0443991    0.0811631    0.5759103 
H    -2.4315222   -0.3083249    0.7402592 
C    -1.3316750    2.0052170    0.0333904 
H    -2.8809815    1.9164991    1.5153183 
N    -0.4760255    2.7111719    0.9261508 
N    -0.7927497    1.5680864   -1.2131696 
H    -1.4123530    1.9362357   -1.9649575 
H    -0.8852633    0.5295098   -1.2292538 
H    -0.8138882    3.0583317    1.8486070 
