15
Energy =
C    -3.9556137    2.1394114    0.1189855 
C    -2.6444968    1.3605497    0.2808003 
H    -4.8250697    1.4533692    0.2010017 
H    -3.9961660    2.6513814   -0.8657168 
H    -4.0428640    2.9082946    0.9171176 
N    -2.5548662    0.3260829   -0.7547358 
H    -2.6815817    0.7509244   -1.7023374 
H    -3.3337063   -0.3605287   -0.6227674 
C    -1.4347178    2.2772921    0.2508205 
H    -2.6351180    0.8690185    1.2855632 
N    -1.0955883    3.0278854   -0.9132554 
N    -0.7202012    2.5354168    1.4538118 
H    -0.8708372    3.5454749    1.6690804 
H     0.2899213    2.4346263    1.2109235 
H    -1.6296482    2.9121852   -1.7995245 
