15
Energy =
C    -3.9566470    2.1532289   -0.3409334 
C    -2.7285747    1.7023464    0.4599844 
H    -4.8816320    1.7158361    0.0900995 
H    -3.8614059    1.8342255   -1.4020470 
H    -4.0450295    3.2607707   -0.3167759 
N    -2.6017004    0.2356840    0.4292890 
H    -3.3828603   -0.2220478   -0.0968521 
H    -2.6410806   -0.1374895    1.4060928 
C    -1.4627745    2.3444885   -0.0831973 
H    -2.8606730    2.0518117    1.5124745 
N    -0.6729800    3.2072589    0.7348875 
N    -1.0494515    2.0995463   -1.4272547 
H    -0.7979981    1.0878041   -1.4645798 
H    -0.1633556    2.6287511   -1.5831382 
H    -0.9341661    3.4145607    1.7224750 
