15
Energy =
C    -3.9025523    2.4278501   -0.1583699 
C    -2.6924217    1.7479398    0.5331237 
H    -4.7090107    1.7240587   -0.4464910 
H    -3.6056200    2.9540150   -1.0915919 
H    -4.3534566    3.1796389    0.5234688 
N    -2.9322527    0.3050917    0.7337993 
H    -3.8408784   -0.0393439    0.3501915 
H    -2.9323547    0.0856716    1.7571820 
C    -1.3920563    1.9853429   -0.2280908 
H    -2.5287186    2.2390792    1.5247694 
N    -0.9564348    3.3168887   -0.5008433 
N    -0.5220057    0.9024715   -0.5559066 
H     0.2642451    1.2877644   -1.1230079 
H    -1.0687317    0.2752723   -1.1842185 
H    -1.5259525    4.1387091   -0.2058425 
