15
Energy =
C    -3.9820895    2.0508827   -0.3447327 
C    -2.7338642    1.6809667    0.4678606 
H    -4.8935377    1.6746874    0.1672637 
H    -3.9331618    1.6001591   -1.3592349 
H    -4.0673452    3.1542001   -0.4463472 
N    -2.6323225    0.2154539    0.6152112 
H    -1.7426261   -0.1454227    0.1935353 
H    -3.4013489   -0.2896466    0.1159840 
C    -1.4782422    2.2930932   -0.1456575 
H    -2.8481610    2.1175038    1.4884019 
N    -0.7140420    3.2599084    0.5735300 
N    -1.0286796    1.8793612   -1.4362252 
H    -0.0843315    2.2989971   -1.5879333 
H    -1.6622666    2.3330557   -2.1289431 
H    -0.9831004    3.5674113    1.5326201 
