15
Energy =
C    -3.3290796    2.9686437    0.8796749 
C    -2.7284942    1.6260558    0.4246052 
H    -3.4024170    3.0026417    1.9867203 
H    -4.3529311    3.1121512    0.4725363 
H    -2.7140338    3.8338734    0.5488188 
N    -3.7331979    0.8962053   -0.3571830 
H    -3.3380915   -0.0307861   -0.6423731 
H    -3.9348164    1.4220059   -1.2410833 
C    -1.4311270    1.8131533   -0.3542176 
H    -2.4872298    1.0262885    1.3352039 
N    -0.2069039    1.2624320    0.1280532 
N    -1.4159485    2.5637462   -1.5675444 
H    -1.7657689    1.9226674   -2.3116647 
H    -0.4160910    2.7557226   -1.8006083 
H    -0.1611093    0.7161234    1.0148011 
