15
Energy =
C    -3.8276634    2.3445149   -0.6181806 
C    -2.8284975    1.8285771    0.4247791 
H    -4.8649351    2.0872333   -0.3168822 
H    -3.6279758    1.9004974   -1.6157387 
H    -3.7523697    3.4505038   -0.7042628 
N    -2.9217836    0.3679762    0.5186380 
H    -2.7561454   -0.0661559   -0.4191682 
H    -3.8892961    0.0991253    0.8150015 
C    -1.4076387    2.2697314    0.1166730 
H    -3.0839582    2.2746398    1.4181179 
N    -0.7626047    1.9027111   -1.1021015 
N    -0.7092644    3.0964440    1.0453585 
H     0.1876965    3.3831645    0.5931452 
H    -0.4436410    2.4732868    1.8394522 
H    -1.2387957    1.2899753   -1.7962355 
