15
Energy =
C    -3.7344576    2.6390910   -0.5331364 
C    -2.8868590    1.7943105    0.4502785 
H    -4.4398045    2.0435311   -1.1462983 
H    -3.0934154    3.2105038   -1.2403985 
H    -4.3364123    3.3814857    0.0326307 
N    -3.2088354    0.3578801    0.3608513 
H    -3.9432373    0.1325889   -0.3476392 
H    -3.5759825    0.0236472    1.2825138 
C    -1.4004337    2.0062910    0.2265978 
H    -3.0937384    2.1604974    1.4872294 
N    -0.7551436    1.4571558   -0.9200220 
N    -0.6764424    2.9023079    1.0689182 
H     0.2671181    3.0391741    0.6422643 
H    -0.5176438    2.3933938    1.9658675 
H    -1.2888479    0.8139076   -1.5429717 
