15
Energy =
C    -3.8930492    2.3932240   -0.5140531 
C    -2.7935634    1.6868993    0.3223067 
H    -4.3991898    1.6712961   -1.1922543 
H    -3.5673326    3.2040637   -1.1767502 
H    -4.6728209    2.8069464    0.1596097 
N    -2.9126901    0.2455282    0.0518720 
H    -3.8528866   -0.0889863    0.3706637 
H    -2.2190763   -0.3013127    0.6091195 
C    -1.3235444    2.1544006    0.1734425 
H    -3.0304655    1.8699441    1.3987176 
N    -0.3354890    1.5454727    1.0041381 
N    -0.8878126    3.3149919   -0.5479461 
H    -0.5058862    3.9781096    0.1614634 
H    -1.6474745    3.8132385   -1.0371440 
H    -0.5603483    0.7775082    1.6694046 
