15
Energy =
C    -3.9123767    2.3574882    0.3534008 
C    -2.5629600    1.6871230    0.6071450 
H    -4.6628201    1.9682039    1.0743588 
H    -4.2753470    2.1426065   -0.6730121 
H    -3.8311900    3.4577189    0.4827227 
N    -2.7290837    0.2372158    0.4650875 
H    -1.8116025   -0.2284066    0.6639615 
H    -2.9731739   -0.0012217   -0.5239119 
C    -1.4757079    2.2335845   -0.3049300 
H    -2.2498092    1.9140492    1.6571862 
N    -1.5609445    2.1110079   -1.7235150 
N    -0.3438453    2.8868780    0.2633033 
H    -0.6639962    3.8408760    0.5391231 
H     0.3514823    3.0262922   -0.5041820 
H    -2.3746128    1.6465444   -2.1787145 
