15
Energy =
C    -3.8323157    2.7377013    0.3178281 
C    -2.7082806    1.6720274    0.4002868 
H    -3.5072315    3.7322805   -0.0203930 
H    -4.2979106    2.8720036    1.3177472 
H    -4.6442277    2.4308132   -0.3761064 
N    -3.0988176    0.5043561   -0.3977623 
H    -3.2130985    0.7918365   -1.3995423 
H    -4.0216290    0.1375815   -0.0644179 
C    -1.2775149    2.1014235    0.0331802 
H    -2.6270868    1.3497946    1.4671773 
N    -0.9031782    3.4304357   -0.3288291 
N    -0.2271828    1.1392505    0.1098966 
H    -0.4693212    0.3727491   -0.5556092 
H    -0.2389270    0.7359869    1.0709360 
H    -1.5296860    4.2537860   -0.4002503 
