15
Energy =
C    -3.9283537    2.3524017   -0.1669283 
C    -2.7044648    1.6375571    0.4590353 
H    -3.6289606    3.0575768   -0.9727751 
H    -4.4533716    2.9489287    0.6093976 
H    -4.6766057    1.6610546   -0.6044702 
N    -2.7982098    0.1727647    0.3245455 
H    -3.6539343   -0.1572037   -0.1754874 
H    -2.8088846   -0.2720736    1.2718088 
C    -1.3968595    2.1346994   -0.1473058 
H    -2.6712502    1.9046590    1.5440804 
N    -0.5624694    3.0382796    0.5755535 
N    -0.9528002    1.6738133   -1.4244947 
H    -0.4745660    2.4778847   -1.8854365 
H    -1.8000176    1.4613546   -1.9935933 
H    -0.8248589    3.3863882    1.5220929 
