15
Energy =
C    -3.9036943    2.5602306    0.4920132 
C    -2.7052739    1.5916333    0.3109813 
H    -4.2432750    2.5479366    1.5491411 
H    -4.7682104    2.2409063   -0.1308574 
H    -3.7406681    3.6077475    0.2112382 
N    -3.1870815    0.4665368   -0.5055118 
H    -3.9530398   -0.0300398    0.0084876 
H    -2.4371323   -0.2467891   -0.6448018 
C    -1.3719272    2.1468498   -0.2506773 
H    -2.4353666    1.2084063    1.3252421 
N    -0.2574076    1.2598189   -0.3404926 
N    -1.0717428    3.5327950   -0.4656858 
H    -0.3155542    3.7799111    0.2095690 
H    -1.8610202    4.1674919   -0.2686166 
H    -0.3215674    0.2534865   -0.0834379 
