15
Energy =
C    -3.8815881    2.5524662   -0.2725379 
C    -2.7607913    1.6861354    0.3561651 
H    -4.6053118    1.9315896   -0.8443115 
H    -3.5174708    3.3097653   -0.9902135 
H    -4.4476156    3.0807809    0.5233634 
N    -3.0594898    0.2769594    0.0592149 
H    -4.0303089    0.0519358    0.3826741 
H    -2.4494773   -0.3459158    0.6341577 
C    -1.3349183    2.0644566   -0.0867413 
H    -2.7750275    1.8412716    1.4629339 
N    -0.2300232    1.2424701    0.2800413 
N    -1.0149181    3.3753714   -0.5539990 
H    -1.5125467    4.0732112    0.0404790 
H    -1.3427720    3.4460027   -1.5409852 
H    -0.3431510    0.3177204    0.7406837 
