15
Energy =
C    -3.7225059    2.7021004    0.4077264 
C    -2.7648015    1.4928042    0.3329244 
H    -3.2557539    3.6307960    0.0136425 
H    -4.0037420    2.8984238    1.4642918 
H    -4.6602115    2.5293777   -0.1621361 
N    -3.3404632    0.4470031   -0.5189187 
H    -3.5220793    0.8272728   -1.4777808 
H    -4.2601246    0.1399610   -0.1230359 
C    -1.3742930    1.8720587   -0.1496158 
H    -2.6253095    1.0790998    1.3635442 
N    -1.1807932    2.5277648   -1.4023340 
N    -0.2320171    1.4651403    0.6002478 
H     0.6053543    1.8958004    0.1486341 
H    -0.1462900    0.4371486    0.4420743 
H    -1.9962598    2.7804648   -1.9998392 
