15
Energy =
C    -3.6718672    2.6132202    0.6034553 
C    -2.6876947    1.4410513    0.3576663 
H    -3.8145685    2.7603445    1.6953711 
H    -4.6768829    2.4562356    0.1633976 
H    -3.2837598    3.5723244    0.1955640 
N    -3.3164002    0.3437552   -0.4083285 
H    -2.8020062    0.1467026   -1.2995184 
H    -4.3082901    0.5317424   -0.6775880 
C    -1.3921035    1.9195771   -0.2842205 
H    -2.3907771    1.0264096    1.3529374 
N    -1.3971658    2.5257991   -1.5756033 
N    -0.1528427    1.7537762    0.4021013 
H     0.5829557    2.2373140   -0.1602206 
H     0.0711157    0.7351840    0.3592580 
H    -2.2933864    2.6506613   -2.0937077 
