15
Energy =
C    -3.5127517    2.6704774    0.7970022 
C    -2.6678528    1.4358562    0.4348993 
H    -3.6292147    2.7418023    1.8990874 
H    -4.5333561    2.6053792    0.3613152 
H    -3.0492888    3.6168401    0.4437456 
N    -3.4881783    0.5118733   -0.3563032 
H    -2.9340336   -0.3595061   -0.5344202 
H    -3.6849111    0.9299266   -1.2954932 
C    -1.3766569    1.8013666   -0.2837839 
H    -2.3682800    0.9220060    1.3827845 
N    -1.3941001    2.5193544   -1.5162018 
N    -0.1254574    1.3777612    0.2512027 
H     0.0777057    2.0088715    1.0569191 
H     0.6047674    1.5817340   -0.4678283 
H    -2.2920916    2.8412056   -1.9360880 
