15
Energy =
C    -3.9361946    2.2369145   -0.4729070 
C    -2.7882601    1.7963154    0.4432398 
H    -3.9207123    3.3408528   -0.6033618 
H    -4.9132172    1.9504949   -0.0302278 
H    -3.8329880    1.7613191   -1.4719520 
N    -2.8224343    0.3344306    0.6350486 
H    -3.6202755   -0.1198410    0.1306697 
H    -2.9547966    0.1209252    1.6512298 
C    -1.4510564    2.2596762   -0.1139598 
H    -2.9003628    2.3161423    1.4270607 
N    -0.4722993    1.3465889   -0.6040069 
N    -1.1405082    3.6484647   -0.1200580 
H    -0.8987504    3.8830320   -1.1079685 
H    -0.2560360    3.7465346    0.4255990 
H    -0.6620849    0.3215007   -0.6013382 
