15
Energy =
C    -3.7927028    2.1427533   -0.5892913 
C    -2.7282682    1.9093996    0.4875275 
H    -3.7409112    3.1884023   -0.9625886 
H    -4.8082004    1.9714956   -0.1731790 
H    -3.6401334    1.4574737   -1.4503940 
N    -2.8613490    0.5471945    1.0177573 
H    -2.8984676   -0.1469890    0.2345427 
H    -3.7695775    0.4656221    1.5329059 
C    -1.3277050    2.1755116   -0.0506489 
H    -2.8838977    2.6379739    1.3215459 
N    -0.8367285    3.5096566   -0.1266641 
N    -0.5258242    1.1330229   -0.6005770 
H    -1.0968335    0.6595776   -1.3319057 
H    -0.3589515    0.4496157    0.1699390 
H    -1.4059028    4.3158541    0.2072190 
