15
Energy =
C    -3.8371663    2.3094064   -0.5424321 
C    -2.8089582    1.7620400    0.4405198 
H    -4.8570233    2.0106424   -0.2211154 
H    -3.6603830    1.8943963   -1.5562844 
H    -3.7831728    3.4181628   -0.5867559 
N    -2.9184053    0.2946542    0.4274250 
H    -3.1074530   -0.0478141    1.3983112 
H    -2.0222896   -0.1584403    0.1288400 
C    -1.4084205    2.2554238    0.1043845 
H    -3.0571280    2.1621209    1.4557372 
N    -0.7824241    1.9164924   -1.1314409 
N    -0.7222278    3.1106443    1.0149161 
H     0.1332134    3.4613113    0.5279204 
H    -0.3834727    2.5000385    1.7901801 
H    -1.2650121    1.2978750   -1.8178788 
