15
Energy =
C    -3.7931979    1.9313652   -0.8046200 
C    -2.8417373    1.8821782    0.3967530 
H    -4.8148723    1.6213212   -0.4981269 
H    -3.4371509    1.2527798   -1.6101371 
H    -3.8501727    2.9625959   -1.2142612 
N    -2.7900306    0.5192587    0.9520316 
H    -3.3910661   -0.1569539    0.4237693 
H    -3.1476588    0.5268540    1.9359233 
C    -1.4481002    2.3491319    0.0031663 
H    -3.2182672    2.5960116    1.1709872 
N    -0.5688228    1.4895687   -0.7128259 
N    -1.0509736    3.7035713    0.2082563 
H    -1.0573205    3.8750321    1.2371277 
H    -1.7724210    4.3137819   -0.2334058 
H    -0.8388333    0.4963011   -0.8712269 
