15
Energy =
C    -3.8073836    1.8017413   -0.6194282 
C    -2.7393034    1.7265204    0.4679691 
H    -3.4700289    1.2240759   -1.5084943 
H    -3.9844566    2.8562404   -0.9199667 
H    -4.7608747    1.3648529   -0.2576266 
N    -2.5420392    0.3166534    0.8182541 
H    -3.3925831   -0.0357694    1.3153788 
H    -1.7472239    0.2384645    1.4955340 
C    -1.4414132    2.3570877   -0.0114519 
H    -3.0950311    2.2964464    1.3597203 
N    -0.7918156    3.3643443    0.7598110 
N    -0.7868908    1.8679232   -1.1772450 
H     0.0316762    1.3184008   -0.8374134 
H    -0.4011048    2.7018541   -1.6718039 
H    -1.2088252    3.7337054    1.6406825 
