15
Energy =
C    -3.6745325    2.0067052   -0.9317336 
C    -2.9063218    1.8666082    0.3876705 
H    -4.7418743    1.7342658   -0.7928732 
H    -3.2341733    1.3454030   -1.7095688 
H    -3.6247027    3.0557952   -1.2946819 
N    -3.0033825    0.4846476    0.8663065 
H    -2.5887640   -0.1590026    0.1503799 
H    -4.0097981    0.2196550    0.9742394 
C    -1.4531103    2.2777321    0.2242375 
H    -3.3645351    2.5449627    1.1463790 
N    -0.9048466    3.3577303    0.9761935 
N    -0.6000113    1.5731039   -0.6717851 
H     0.1619687    1.1749182   -0.0806563 
H    -0.1555384    2.2985673   -1.2755272 
H    -1.4769113    3.8889586    1.6670685 
