15
Energy =
C    -3.7207595    2.7312694    0.1019800 
C    -2.6995977    1.6370340    0.4403892 
H    -3.8517159    2.8257991   -0.9967271 
H    -3.3848411    3.7125664    0.5018706 
H    -4.7048781    2.4881508    0.5572400 
N    -3.1480464    0.3327652   -0.0841029 
H    -2.4710414   -0.0570511   -0.7829985 
H    -4.0725237    0.3921400   -0.5724344 
C    -1.3047058    2.0135139   -0.0510895 
H    -2.6405935    1.5560159    1.5529864 
N    -1.0439779    2.2074596   -1.4369858 
N    -0.2218116    2.1471038    0.8652642 
H    -0.1295388    1.2402717    1.3735884 
H    -0.4810742    2.8882953    1.5516964 
H    -1.8024125    2.1052200   -2.1431781 
