15
Energy =
C    -3.8538471    2.5469869   -0.1363164 
C    -2.7360119    1.6518654    0.4423716 
H    -4.4280596    3.0185342    0.6890963 
H    -4.5716714    1.9753693   -0.7617749 
H    -3.4401089    3.3640660   -0.7671934 
N    -2.9808341    0.2468295    0.0904445 
H    -3.1547526    0.1557507   -0.9376705 
H    -3.8539750   -0.0752344    0.5703455 
C    -1.3499763    2.1178674    0.0227153 
H    -2.7306333    1.7437694    1.5576270 
N    -0.6810192    1.5932172   -1.1219655 
N    -0.7602236    3.2231748    0.6969553 
H    -0.6886599    3.9871049   -0.0104980 
H     0.2199555    2.9361722    0.9137398 
H    -1.0710586    0.7923077   -1.6604947 
