15
Energy =
C    -3.9082047    2.2021913   -0.6363144 
C    -2.8726848    1.8156640    0.4175528 
H    -4.9100896    1.8296729   -0.3342924 
H    -3.6447210    1.7580993   -1.6193852 
H    -3.9564108    3.3069773   -0.7453919 
N    -2.9571387    0.3663320    0.6299173 
H    -2.2664181    0.0787453    1.3624692 
H    -2.7318083   -0.1449734   -0.2557637 
C    -1.4818116    2.3080426    0.0234798 
H    -3.1343129    2.3328302    1.3720109 
N    -0.4008261    1.4193393   -0.2661538 
N    -1.2374524    3.7128892   -0.0265069 
H    -0.2961697    3.8539442   -0.4573589 
H    -1.1562759    4.0354684    0.9622854 
H    -0.4934537    0.3830694   -0.2458369 
