15
Energy =
C    -3.9150965    2.4557621   -0.2236136 
C    -2.6905237    1.8882049    0.5094959 
H    -4.0336408    1.9824090   -1.2219456 
H    -3.8181814    3.5561796   -0.3468319 
H    -4.8381888    2.2619625    0.3633220 
N    -2.8633585    0.4422779    0.6759282 
H    -2.9457589   -0.0101502   -0.2660607 
H    -3.7535770    0.2481325    1.1919248 
C    -1.3480950    2.1896941   -0.1609808 
H    -2.6373476    2.3662766    1.5178482 
N    -1.2466800    2.8380465   -1.4274105 
N    -0.1350348    1.8308381    0.4958140 
H    -0.1759329    0.8006783    0.6594924 
H    -0.1328667    2.2984394    1.4272529 
H    -2.0728029    3.1165951   -1.9943646 
