15
Energy =
C    -3.9196205    2.4942198    0.3616081 
C    -2.6493063    1.6097463    0.3782336 
H    -4.2935142    2.6311201    1.3983519 
H    -4.7395799    1.9958296   -0.2012801 
H    -3.8232292    3.4931855   -0.0818979 
N    -3.0273130    0.3206883   -0.2153138 
H    -2.3466425   -0.4229668    0.0617396 
H    -2.9908045    0.3977554   -1.2606952 
C    -1.3404792    2.1448475   -0.2475028 
H    -2.3892266    1.4399793    1.4524972 
N    -0.1774143    1.3231362   -0.1802524 
N    -1.1351990    3.4750619   -0.7377403 
H    -0.4313123    3.9166739   -0.1063004 
H    -1.9809783    4.0662289   -0.7040744 
H    -0.1924814    0.3694661    0.2376088 
