15
Energy =
C    -3.8863369    2.2883084    0.4750285 
C    -2.4841171    1.6733712    0.5725425 
H    -4.5556274    1.8452405    1.2423158 
H    -4.3229202    2.1069886   -0.5301882 
H    -3.8395453    3.3839307    0.6533744 
N    -2.5954855    0.2118095    0.4819454 
H    -3.1576823   -0.0511475   -0.3622899 
H    -3.1127774   -0.1463473    1.3189145 
C    -1.5405941    2.2494633   -0.4789245 
H    -2.0359475    1.9467381    1.5583663 
N    -0.7968256    1.4142006   -1.3658997 
N    -1.3066590    3.6564307   -0.5152493 
H    -2.0903348    4.0666580   -1.0675532 
H    -0.4433558    3.8131910   -1.0821150 
H    -0.8543202    0.3756955   -1.2997159 
