15
Energy =
C    -3.7906482    2.3640989   -0.5817459 
C    -2.7944901    1.7397182    0.4076724 
H    -3.2885963    2.9987986   -1.3437802 
H    -4.5261024    2.9964092   -0.0414042 
H    -4.3583492    1.5771965   -1.1253784 
N    -2.9198945    0.2753251    0.3189405 
H    -3.1586508   -0.1153150    1.2605167 
H    -2.0182643   -0.1779192    0.0356538 
C    -1.3670785    2.2194440    0.1529074 
H    -3.0715912    2.0783687    1.4374816 
N    -0.7146546    1.9402172   -1.0810642 
N    -0.6665346    2.9791401    1.1342204 
H    -0.6135480    2.3984755    1.9994037 
H    -1.2361161    3.8288298    1.3396578 
H    -1.2010714    1.3891708   -1.8199940 
