15
Energy =
C    -3.8725893    2.5284280   -0.2178046 
C    -2.7267485    1.6429750    0.3512306 
H    -3.5418441    3.3291098   -0.8938282 
H    -4.4195281    3.0130836    0.6188123 
H    -4.6247542    1.9576294   -0.7974655 
N    -3.0081403    0.2074257    0.1235885 
H    -2.2352284   -0.2502150   -0.4161840 
H    -3.8837881    0.0174413   -0.4118873 
C    -1.2875684    2.0090454   -0.0504234 
H    -2.7178515    1.7919839    1.4580771 
N    -0.9220586    3.1651278   -0.8066197 
N    -0.2235368    1.2349259    0.4922094 
H     0.3147000    1.8763312    1.1151142 
H     0.4086101    1.0058105   -0.3062417 
H    -1.5629683    3.8835731   -1.1946786 
