15
Energy =
C    -3.7474629    2.6239129    0.2710016 
C    -2.6702525    1.5306442    0.2116138 
H    -3.8692819    3.0872067   -0.7322116 
H    -3.4888014    3.4066658    1.0134750 
H    -4.7249477    2.1912520    0.5696680 
N    -3.1393366    0.4944911   -0.7191719 
H    -4.1090873    0.1925621   -0.4653776 
H    -2.5604202   -0.3676588   -0.5990415 
C    -1.3009234    2.0853242   -0.2080044 
H    -2.5365634    1.0969542    1.2325959 
N    -0.2682795    1.2144333   -0.6622078 
N    -0.9158653    3.4227436    0.1120510 
H    -1.1094674    3.5850582    1.1235007 
H    -1.5058562    4.0643012   -0.4598418 
H    -0.4259344    0.2059791   -0.8606855 
