15
Energy =
C    -3.7795838    2.3916095    0.5683389 
C    -2.4944602    1.5685442    0.3934568 
H    -3.5718520    3.3659480    1.0565510 
H    -4.5065341    1.8475898    1.2066321 
H    -4.2540988    2.5658034   -0.4218047 
N    -2.8722735    0.2616159   -0.1628012 
H    -3.6410470   -0.1648672    0.4055631 
H    -2.0731080   -0.4041539   -0.0582533 
C    -1.4647019    2.2799844   -0.4962858 
H    -2.0132807    1.4340755    1.3924928 
N    -0.3690166    1.5629821   -1.0597067 
N    -1.3950360    3.7056804   -0.5522318 
H    -1.3771462    4.0693539    0.4245673 
H    -2.2568462    4.0455871   -1.0309265 
H    -0.2881209    0.5272965   -1.0134169 
