15
Energy =
C    -3.9679064    2.0341846   -0.5623440 
C    -2.7593690    1.5654581    0.2905156 
H    -4.2335858    1.2908092   -1.3444451 
H    -3.8222292    2.9860308   -1.0929206 
H    -4.8618200    2.1541282    0.0862633 
N    -2.3882412    0.2061217   -0.1174307 
H    -2.0576371    0.2196173   -1.1114033 
H    -3.2178730   -0.4291382   -0.0566208 
C    -1.5112702    2.4596969    0.3249722 
H    -3.0870966    1.5236810    1.3572323 
N    -1.4187983    3.7412439   -0.3046513 
N    -0.3923559    2.0260226    1.0987211 
H    -0.6619048    2.1269735    2.1006199 
H     0.3906085    2.6958966    0.9307672 
H    -2.1590656    4.2117402   -0.8592390 
