15
Energy =
C    -3.7383774    2.2632009   -0.7959975 
C    -2.7607490    1.3781046   -0.0027552 
H    -4.7761960    2.0964077   -0.4377592 
H    -3.7189573    2.0148987   -1.8790798 
H    -3.5142007    3.3457219   -0.6848380 
N    -2.1062619    0.4431888   -0.9253881 
H    -1.5344873   -0.2332215   -0.3661869 
H    -1.4340125    0.9628682   -1.5369573 
C    -1.7483988    2.1895528    0.7910422 
H    -3.3488795    0.7906590    0.7460385 
N    -0.8760135    3.1185990    0.1526804 
N    -1.5567610    1.9184306    2.1736592 
H    -1.5771865    2.8440081    2.6564199 
H    -0.5789206    1.5647405    2.2650267 
H    -0.9606722    3.3189592   -0.8666123 
