15
Energy =
C    -3.6047173    2.3488427    0.9940892 
C    -2.6995989    1.3961004    0.2145088 
H    -3.0796795    2.7356069    1.8931262 
H    -4.5261397    1.8166767    1.3127800 
H    -3.8997985    3.2111452    0.3578523 
N    -3.4710610    0.8313966   -0.8972259 
H    -2.8559809    0.1909075   -1.4520880 
H    -3.7686237    1.6014301   -1.5428853 
C    -1.4359344    2.0994077   -0.2633274 
H    -2.3955761    0.5676095    0.8983849 
N    -0.1511939    1.6618496    0.1759841 
N    -1.5171877    3.2199010   -1.1433356 
H    -1.6749769    2.8311252   -2.0978360 
H    -0.5732964    3.6663806   -1.1658306 
H    -0.0372536    0.8543608    0.8255243 
