15
Energy =
C    -3.9925780    1.7880379   -0.3807095 
C    -2.7165950    1.6953357    0.4644640 
H    -4.2969471    2.8500237   -0.5008521 
H    -4.8245077    1.2379058    0.1071624 
H    -3.8209788    1.3575449   -1.3914158 
N    -2.3376354    0.2886357    0.6256564 
H    -2.1627653   -0.1325505   -0.3181990 
H    -3.1296187   -0.2410790    1.0581571 
C    -1.5821219    2.4899754   -0.1606837 
H    -2.9190598    2.1316532    1.4714661 
N    -0.9769436    3.5784786    0.5332792 
N    -1.0951861    2.1549408   -1.4562722 
H    -0.0820762    1.9409620   -1.3284683 
H    -1.1429862    3.0317082   -2.0198978 
H    -1.2805232    3.8500535    1.4928346 
