15
Energy =
C    -3.9125053    2.4617413    0.2872910 
C    -2.7183972    1.5091043    0.2630909 
H    -3.7458119    3.2803824    1.0192708 
H    -4.8313161    1.9079922    0.5742896 
H    -4.0671135    2.9059236   -0.7184401 
N    -3.0816190    0.3912710   -0.6153281 
H    -2.4512163   -0.4229859   -0.4331392 
H    -2.9647899    0.6739091   -1.6179518 
C    -1.4368299    2.2174874   -0.1716439 
H    -2.5414334    1.1352450    1.3007449 
N    -0.3374910    1.4877176   -0.7129973 
N    -1.1876025    3.5498634    0.2647175 
H    -0.7356733    4.0386562   -0.5395250 
H    -0.4603770    3.4818736    1.0103716 
H    -0.3989158    0.4742630   -0.9441889 
