15
Energy =
C    -3.6410070    1.8118975    1.0838550 
C    -2.6639400    1.3246970   -0.0180408 
H    -3.8596175    0.9793461    1.7859545 
H    -4.6130266    2.1404404    0.6576216 
H    -3.2774367    2.6595257    1.6833534 
N    -3.3772933    1.2891253   -1.2998034 
H    -3.6793798    2.2581299   -1.5578893 
H    -4.2315881    0.6899834   -1.2182000 
C    -1.3393537    2.0777258   -0.1802100 
H    -2.3455338    0.2824292    0.2281006 
N    -0.8655302    3.0880226    0.7128846 
N    -0.4662279    1.6850702   -1.2332066 
H     0.4539888    1.4717739   -0.7904279 
H    -0.3247617    2.5360644   -1.8192414 
H    -1.3278351    3.3947365    1.5906288 
