15
Energy =
C    -3.8773944    2.0780555   -0.3589266 
C    -2.6299397    1.9813745    0.5535289 
H    -4.4629934    2.9860850   -0.1013087 
H    -4.5650252    1.2125765   -0.2761205 
H    -3.5965759    2.1620542   -1.4324221 
N    -2.6321936    0.7423797    1.3547997 
H    -3.4625284    0.1300989    1.1869386 
H    -2.6458517    0.9833476    2.3737109 
C    -1.3422295    2.0931155   -0.2537069 
H    -2.6293124    2.8648145    1.2401356 
N    -0.8871582    3.3670049   -0.6974904 
N    -0.6692964    0.9333972   -0.7366353 
H    -1.3960371    0.3328474   -1.1808512 
H    -0.3300300    0.4213705    0.1063889 
H    -1.3926274    4.2407727   -0.4394416 
