15
Energy =
C    -3.9489652    2.3074551   -0.4173138 
C    -2.7941795    1.7985546    0.4553608 
H    -3.8893538    1.8588565   -1.4325855 
H    -3.9080036    3.4136559   -0.5105229 
H    -4.9237289    2.0379945    0.0415203 
N    -2.8993939    0.3378805    0.6319938 
H    -3.7358681   -0.0690642    0.1501907 
H    -3.0066648    0.1175569    1.6498040 
C    -1.4478594    2.1974789   -0.1338940 
H    -2.8472783    2.3104277    1.4488358 
N    -0.5492434    1.2357333   -0.6845263 
N    -1.0486038    3.5664496   -0.1037717 
H    -1.4888884    4.0138593   -0.9365422 
H    -0.0188347    3.5903984   -0.2773334 
H    -0.8054908    0.2254369   -0.7001934 
