15
Energy =
C    -3.8146648    2.6041293   -0.0980523 
C    -2.7513153    1.6112019    0.3892483 
H    -3.7136458    2.7569289   -1.1949874 
H    -3.7283779    3.5747698    0.4320803 
H    -4.8353995    2.2168789    0.1041450 
N    -3.0688317    0.2973907   -0.1875528 
H    -4.0575664    0.0382464    0.0414156 
H    -2.4883608   -0.4348363    0.2833389 
C    -1.3196896    2.0370590    0.0296789 
H    -2.7980416    1.5570500    1.5040559 
N    -0.9673534    3.4006941   -0.1985743 
N    -0.2529301    1.0914592    0.0739496 
H    -0.4307594    0.4058610   -0.6920945 
H    -0.3078805    0.5908430    0.9866363 
H    -1.6523223    4.1828126   -0.1949967 
