15
Energy =
C    -3.9461763    2.2461779    0.5011079 
C    -2.6007810    1.4998592    0.3496786 
H    -4.2446762    2.2775873    1.5703419 
H    -4.7679625    1.7584249   -0.0649659 
H    -3.8771095    3.2971397    0.1435191 
N    -2.7994995    0.2865196   -0.4534893 
H    -3.2318146    0.5423740   -1.3732528 
H    -3.4752325   -0.3442758    0.0387258 
C    -1.5050187    2.3964646   -0.2155638 
H    -2.2266791    1.2061762    1.3613618 
N    -0.7567329    2.0511317   -1.3800317 
N    -1.1265045    3.5656427    0.5023598 
H    -1.1767681    4.3534478   -0.1805648 
H    -0.1157728    3.4455178    0.7333054 
H    -0.9278074    1.1597724   -1.8920523 
