15
Energy =
C    -3.9733066    2.2983587   -0.3648174 
C    -2.8008673    1.7740641    0.4625921 
H    -4.9285204    1.9212338    0.0597074 
H    -3.8931715    1.9490298   -1.4162755 
H    -3.9973053    3.4082492   -0.3525372 
N    -2.9370418    0.3172386    0.5696459 
H    -2.1464548   -0.0677047    1.1385225 
H    -2.9048002   -0.1229210   -0.3799636 
C    -1.4653542    2.2310685   -0.1181842 
H    -2.8648311    2.2147581    1.4874110 
N    -0.5103191    1.3266192   -0.6698217 
N    -1.0946576    3.5998671   -0.0073026 
H    -0.3161051    3.8244551    0.6496598 
H    -1.6469769    4.2938390   -0.5555138 
H    -0.6817785    0.3050572   -0.7644555 
