15
Energy =
C    -3.6375252    2.8611177    0.1968059 
C    -2.8068326    1.5960865    0.4499673 
H    -4.6639008    2.7344303    0.6015287 
H    -3.7015139    3.0766639   -0.8915007 
H    -3.1683972    3.7343202    0.7006529 
N    -3.4191613    0.4358246   -0.2188742 
H    -4.3049435    0.6829745   -0.7201701 
H    -3.6750641   -0.2841243    0.4963114 
C    -1.3760507    1.7812234   -0.0198480 
H    -2.7610586    1.4261491    1.5547570 
N    -1.0662943    1.8501052   -1.4103092 
N    -0.3416618    2.0162198    0.9344265 
H     0.5125107    2.2969114    0.4029168 
H    -0.1258345    1.0881194    1.3590102 
H    -1.8170655    1.6794072   -2.1130352 
