15
Energy =
C    -3.9078181    2.0922155   -0.6255353 
C    -2.7918660    1.9197956    0.4341461 
H    -4.5404387    1.1922559   -0.7622797 
H    -3.4904755    2.3419111   -1.6263269 
H    -4.5828925    2.9240758   -0.3322680 
N    -2.8245433    0.5816543    1.0528056 
H    -3.5769072   -0.0410560    0.6803863 
H    -2.9970428    0.6720092    2.0815017 
C    -1.4160343    2.1847140   -0.1611939 
H    -2.9423047    2.6962855    1.2251466 
N    -0.7849140    1.2108469   -0.9841319 
N    -0.8154622    3.4742557   -0.0576459 
H    -0.6383188    3.6516177    0.9548793 
H    -1.5101489    4.1735687   -0.3994802 
H    -1.2194494    0.2697302   -1.0863233 
