15
Energy =
C    -3.9272347    1.9460391   -0.4062748 
C    -2.6631760    1.9004703    0.4692616 
H    -4.8444877    1.8633614    0.2135137 
H    -3.9144049    1.1005100   -1.1289171 
H    -4.0058814    2.9079677   -0.9514402 
N    -2.7580413    0.7198513    1.3446793 
H    -3.7265143    0.6166372    1.7282071 
H    -2.1661352    0.8711946    2.1930590 
C    -1.3702456    1.8794329   -0.3720116 
H    -2.6299161    2.8294705    1.0871547 
N    -1.2911495    2.5739386   -1.6174006 
N    -0.1346569    1.3778991    0.1483164 
H    -0.2481033    1.0767117    1.1361159 
H     0.5298931    2.1817606    0.1538615 
H    -2.0964048    3.0531571   -2.0679304 
