15
Energy =
C    -3.8516826    2.4806469   -0.2236775 
C    -2.7658006    1.6511015    0.4565894 
H    -3.8891613    2.2475086   -1.3092368 
H    -3.6570545    3.5665158   -0.0909468 
H    -4.8436239    2.2437226    0.2153737 
N    -3.0430102    0.2375681    0.1877389 
H    -3.9071710   -0.0463204    0.7060492 
H    -2.2628489   -0.3426199    0.5795148 
C    -1.3837041    2.0576324   -0.0452274 
H    -2.7994996    1.8421084    1.5570223 
N    -0.5779561    2.9486266    0.7219745 
N    -0.8227429    1.4819590   -1.2253727 
H    -0.2782150    2.2375890   -1.6950244 
H    -1.6128358    1.2465308   -1.8644353 
H    -0.9277028    3.3712003    1.6082755 
