15
Energy =
C    -3.6656874    2.8867658    0.0809735 
C    -2.7337198    1.7028501    0.4204261 
H    -4.6059366    2.5531482   -0.4068362 
H    -3.1771355    3.6078206   -0.6117451 
H    -3.9396420    3.4375536    1.0052621 
N    -3.3795068    0.4364333    0.0594610 
H    -3.6315937    0.4493155   -0.9574672 
H    -4.2723762    0.3378962    0.5972244 
C    -1.3754021    1.8286983   -0.2577018 
H    -2.5464125    1.6990512    1.5209609 
N    -0.1816807    1.9419184    0.5160279 
N    -1.2815528    1.8969397   -1.6804202 
H    -1.4543827    0.9279447   -2.0252821 
H    -0.2873271    2.1116855   -1.9163360 
H    -0.1992815    1.8972299    1.5570221 
