15
Energy =
C    -3.8550268    2.3570677    0.3753479 
C    -2.6352993    1.4269113    0.3488488 
H    -4.0552269    2.7661471   -0.6389203 
H    -3.6796648    3.2090227    1.0671487 
H    -4.7533411    1.8040466    0.7233706 
N    -2.8706894    0.2992051   -0.5676334 
H    -3.8198564    0.3294972   -1.0097233 
H    -2.8178183   -0.6021479   -0.0382804 
C    -1.3813158    2.1864002   -0.0597532 
H    -2.4667089    1.0460676    1.3863518 
N    -1.1915843    2.6063989   -1.4063476 
N    -0.4346137    2.6074943    0.9204523 
H    -0.0370574    1.7454736    1.3521256 
H    -0.9538678    3.1375015    1.6536549 
H    -1.8692806    2.3118617   -2.1407168 
