15
Energy =
C    -3.9570703    2.2964049   -0.3279563 
C    -2.7465778    1.7658667    0.4527296 
H    -3.9653563    3.4068357   -0.3173410 
H    -4.9029079    1.9367590    0.1288092 
H    -3.9160859    1.9529112   -1.3845366 
N    -2.7739234    0.3008968    0.4558964 
H    -2.6968594   -0.0475199   -0.5297412 
H    -3.6881863   -0.0368657    0.8370079 
C    -1.4179435    2.2717744   -0.0930905 
H    -2.8145325    2.1340307    1.5044887 
N    -0.2383315    2.1601725    0.6990914 
N    -1.2953806    2.7119229   -1.4462354 
H    -0.2759024    2.7428763   -1.6712495 
H    -1.6257143    3.7006766   -1.4617836 
H    -0.2773495    1.7139552    1.6409196 
