15
Energy =
C    -3.9131233    2.4663814    0.0782862 
C    -2.7237845    1.5792097    0.4440781 
H    -4.0066533    2.5736943   -1.0221643 
H    -3.7979434    3.4749940    0.5295936 
H    -4.8498115    2.0078617    0.4612445 
N    -2.9421601    0.2482090   -0.1314741 
H    -2.1469583   -0.3749101    0.1456796 
H    -2.9240183    0.3045814   -1.1764302 
C    -1.4035301    2.1860938    0.0020904 
H    -2.6784330    1.4940629    1.5593872 
N    -1.1270725    2.4672385   -1.3673018 
N    -0.3806254    2.4155320    0.9622017 
H    -0.0778537    3.4059610    0.8294442 
H     0.4283926    1.8248343    0.6679709 
H    -1.8396560    2.2961255   -2.1077453 
