15
Energy =
C    -3.9487276    1.9483204   -0.6666809 
C    -2.8105377    2.0122864    0.3670455 
H    -3.5791279    2.0510785   -1.7098994 
H    -4.6772275    2.7665301   -0.4847830 
H    -4.5067143    0.9894073   -0.5937463 
N    -2.8268189    0.7840201    1.1685512 
H    -2.1099239    0.8615915    1.9283216 
H    -2.5400846   -0.0315949    0.5771728 
C    -1.4480149    2.2469103   -0.2789557 
H    -3.0074139    2.8786154    1.0458784 
N    -0.9326335    1.3462198   -1.2543162 
N    -0.6391161    3.3526657    0.1142099 
H    -0.4809392    3.2761441    1.1426788 
H    -1.1826111    4.2230178   -0.0746308 
H    -1.4862271    0.5235242   -1.5730983 
