15
Energy =
C    -3.9261629    1.7443148   -0.5245487 
C    -2.7664238    1.9292584    0.4703374 
H    -4.7198250    2.4971361   -0.3355153 
H    -4.3878777    0.7384145   -0.4231573 
H    -3.5924861    1.8520560   -1.5792757 
N    -2.6715282    0.7321317    1.3128658 
H    -1.9133026    0.8740615    2.0208333 
H    -2.3657034   -0.0765060    0.7191389 
C    -1.4480927    2.2223740   -0.2337530 
H    -3.0012460    2.8054505    1.1220264 
N    -0.7644609    3.4556374   -0.0286154 
N    -0.8707002    1.2642152   -1.1138297 
H     0.1016342    1.1064577   -0.7696013 
H    -0.7792793    1.7383457   -2.0390119 
H    -1.1448072    4.1965371    0.5985365 
