15
Energy =
C    -3.8321434    2.4814169   -0.3967807 
C    -2.7781499    1.6974929    0.4027833 
H    -4.8494494    2.0833345   -0.1957172 
H    -3.6307142    2.4027083   -1.4871438 
H    -3.8370521    3.5519711   -0.1069596 
N    -3.0121450    0.2624735    0.1986359 
H    -3.0267125    0.0460161   -0.8257616 
H    -3.9469038   -0.0009354    0.5887376 
C    -1.3470358    2.0808810    0.0330647 
H    -2.8784508    1.9337357    1.4901879 
N    -0.9713072    3.4504862   -0.1166127 
N    -0.3052513    1.1088734    0.1196756 
H     0.6019361    1.5986525   -0.0437779 
H    -0.4411925    0.4595560   -0.6841126 
H    -1.6592094    4.2289704   -0.0485531 
