15
Energy =
C    -3.7708779    1.6934128   -1.1364935 
C    -2.8099588    1.4159169    0.0605965 
H    -3.6893396    2.6822086   -1.6057560 
H    -4.8237379    1.5903788   -0.7961667 
H    -3.6515646    0.9762438   -1.9727604 
N    -2.1189755    0.1175881   -0.1243487 
H    -1.0848414    0.2053676    0.0173451 
H    -2.2098164   -0.2753192   -1.0880665 
C    -1.8295879    2.5232257    0.5140910 
H    -3.4658140    1.3007901    0.9580705 
N    -0.9960942    2.2571020    1.6394939 
N    -1.7927128    3.8639191    0.0133195 
H    -2.4950086    4.0553733   -0.7191920 
H    -0.8497888    3.9905738   -0.4147051 
H    -1.0431416    1.3465220    2.1458639 
