15
Energy =
C    -3.4097445    2.9582616   -0.6768337 
C    -2.9198889    1.8809188    0.3242602 
H    -4.2276471    2.6137858   -1.3402132 
H    -2.5884710    3.3057526   -1.3418052 
H    -3.7845297    3.8466912   -0.1259631 
N    -3.6893268    0.6245239    0.2031467 
H    -3.0754576   -0.1883917   -0.0368094 
H    -4.4341635    0.6558774   -0.5290103 
C    -1.4141334    1.6492357    0.2127799 
H    -3.1007669    2.2733762    1.3532274 
N    -0.5719141    1.7807373    1.3573833 
N    -0.8190301    1.3508389   -1.0515748 
H    -1.1140674    0.3833330   -1.3026767 
H     0.2158377    1.3163375   -0.9141196 
H    -0.9609079    1.9935041    2.3009584 
