15
Energy =
C    -3.9326863    2.4281955    0.1936551 
C    -2.7145104    1.5443906    0.4306047 
H    -3.7800377    3.4379011    0.6304173 
H    -4.8272489    1.9644545    0.6601769 
H    -4.1274654    2.5197319   -0.8963642 
N    -2.9852222    0.2484656   -0.2089980 
H    -3.0832145   -0.4912375    0.5242022 
H    -2.1904265   -0.0459961   -0.8262900 
C    -1.4432656    2.2052254   -0.0955630 
H    -2.5951184    1.4104555    1.5333439 
N    -0.3983232    2.5811448    0.8002796 
N    -1.2562026    2.4093482   -1.4963435 
H    -0.2804662    2.7540527   -1.6366346 
H    -1.8845128    3.1956785   -1.7673482 
H    -0.4794242    2.4320188    1.8288843 
