15
Energy =
C    -3.8496497    2.4818374   -0.4167787 
C    -2.7637910    1.8403920    0.4652186 
H    -4.4455141    3.2071424    0.1765479 
H    -4.5557358    1.7174069   -0.8080973 
H    -3.4205987    3.0266049   -1.2855926 
N    -3.0155897    0.3983774    0.5579119 
H    -2.3186161   -0.0305280    1.2120540 
H    -2.8587152   -0.0524477   -0.3741323 
C    -1.3549153    2.1364774   -0.0396043 
H    -2.8461950    2.2784696    1.4905565 
N    -0.9466777    1.7483928   -1.3474877 
N    -0.4067374    2.7925819    0.7981277 
H    -0.2977663    2.2163795    1.6611181 
H    -0.8089205    3.7175626    1.0652202 
H    -1.6045701    1.2673077   -1.9960216 
