15
Energy =
C    -3.8536197    2.0190725   -0.7191524 
C    -2.7663811    1.5831132    0.2945874 
H    -3.6199647    2.9197860   -1.3023743 
H    -4.8128543    2.2067507   -0.1917092 
H    -4.0423308    1.2255127   -1.4746915 
N    -2.3592375    0.2095575   -0.0357878 
H    -3.2030617   -0.4113319   -0.0359909 
H    -1.7538639   -0.1708453    0.7275735 
C    -1.5319789    2.4986127    0.4432799 
H    -3.2416568    1.5817649    1.3059183 
N    -1.3564788    3.7331581   -0.2531108 
N    -0.5357429    2.1751659    1.4137034 
H    -0.0220438    1.3393623    1.0603103 
H    -1.0133721    1.9261211    2.3065913 
H    -1.9748125    4.1341916   -0.9820855 
