15
Energy =
C    -3.8630352    2.4612435   -0.2421146 
C    -2.6926178    1.7430455    0.4475136 
H    -3.8359791    2.2847280   -1.3395240 
H    -3.8271377    3.5527930   -0.0441598 
H    -4.8342098    2.0907859    0.1496606 
N    -2.9485394    0.2982952    0.4186750 
H    -3.1132269   -0.0119256   -0.5690307 
H    -3.8191615    0.0828385    0.9595766 
C    -1.3265414    2.0602236   -0.1656342 
H    -2.6323040    2.0824678    1.5106745 
N    -1.0615530    3.3026371   -0.8130491 
N    -0.2176021    1.1964018    0.0733820 
H    -0.4410842    0.2899689   -0.3911765 
H    -0.1857572    1.0129951    1.0993912 
H    -1.7869287    4.0331553   -0.9612819 
