15
Energy =
C    -3.9014495    2.2149690    0.0711453 
C    -2.5514461    1.7541069    0.6366765 
H    -4.1273573    1.6736499   -0.8729419 
H    -3.8899355    3.3053083   -0.1393569 
H    -4.7111470    2.0124681    0.8040854 
N    -2.6034668    0.3158660    0.9541700 
H    -3.5200020   -0.1268588    0.7090696 
H    -2.4630644    0.1755926    1.9816931 
C    -1.4179523    2.0641288   -0.3324361 
H    -2.3324645    2.3408155    1.5627971 
N    -1.0534136    3.4186821   -0.5943410 
N    -0.7463468    1.0234563   -1.0427225 
H    -0.1102264    1.4713699   -1.7376877 
H    -1.4799855    0.5164222   -1.5818642 
H    -1.5234794    4.2064186   -0.0995556 
