15
Energy =
C    -3.2895249    2.6848348    1.1388264 
C    -2.5841848    1.5144463    0.4621882 
H    -4.1149208    2.3020298    1.7758179 
H    -3.7385055    3.3549354    0.3755815 
H    -2.5816292    3.2591888    1.7737274 
N    -3.5757218    0.8315055   -0.3827803 
H    -3.6181956   -0.1808473   -0.1190837 
H    -3.3027767    0.8504420   -1.3937502 
C    -1.3463774    1.9622158   -0.3190356 
H    -2.2338456    0.8248090    1.2689820 
N    -0.1010143    1.2979326   -0.1329623 
N    -1.3962809    3.0435840   -1.2497721 
H    -1.5652815    3.9153230   -0.7046287 
H    -2.2132129    2.8902304   -1.8790266 
H    -0.0018547    0.4873373    0.5141855 
