15
Energy =
C    -3.5464016    2.7233368    0.7602732 
C    -2.6662381    1.5291703    0.3661890 
H    -2.9660806    3.4440790    1.3757248 
H    -4.4224261    2.3798406    1.3501401 
H    -3.9059707    3.2522125   -0.1490506 
N    -3.4432932    0.5556926   -0.4270014 
H    -3.0538920    0.4441446   -1.3919435 
H    -4.4420514    0.8464098   -0.5490988 
C    -1.4024888    1.9946326   -0.3517345 
H    -2.3389756    1.0214468    1.3044700 
N    -0.1142045    1.5993473    0.1166883 
N    -1.4857134    2.8892488   -1.4617631 
H    -1.8487258    2.3349632   -2.2661735 
H    -0.5108992    3.1667269   -1.7136305 
H    -0.0004675    0.9450699    0.9203247 
