15
Energy =
C    -3.8442369    2.4880464   -0.3288167 
C    -2.7985978    1.6514475    0.4291764 
H    -4.5643629    1.8402366   -0.8749085 
H    -3.3788411    3.1645128   -1.0779341 
H    -4.4221429    3.1147496    0.3826007 
N    -3.0568884    0.2318946    0.1662952 
H    -3.9410566   -0.0478811    0.6522635 
H    -2.2925325   -0.3414194    0.5975802 
C    -1.3781990    2.0400686    0.0277789 
H    -2.9000386    1.8483991    1.5246995 
N    -0.5996445    2.8880936    0.8684220 
N    -0.7679674    1.4967666   -1.1429228 
H    -0.1544339    2.2434782   -1.5355490 
H    -1.5263911    1.3372715   -1.8416599 
H    -0.9903616    3.2903432    1.7470518 
