15
Energy =
C    -3.6892128    2.4556984   -0.8534418 
C    -2.9183581    1.9131002    0.3628741 
H    -4.2906636    1.6571360   -1.3388116 
H    -3.0135956    2.8928553   -1.6196329 
H    -4.3934511    3.2518841   -0.5323228 
N    -3.2356325    0.4907292    0.5335969 
H    -2.7903352    0.1460570    1.4168139 
H    -2.8157426   -0.0651790   -0.2478403 
C    -1.4186409    2.1499471    0.2556637 
H    -3.2651712    2.4676590    1.2703699 
N    -0.6657625    1.6316836   -0.8402822 
N    -0.7446394    2.8887783    1.2723629 
H     0.2407232    3.0317289    0.9556151 
H    -0.6944616    2.2642908    2.1068860 
H    -1.1300571    1.0898119   -1.5999092 
