15
Energy =
C    -3.9727094    2.4439568    0.0676568 
C    -2.7591437    1.5637572    0.3973739 
H    -4.1080692    2.5196771   -1.0333004 
H    -3.8363297    3.4653879    0.4833931 
H    -4.8933110    2.0065498    0.5089789 
N    -2.9232656    0.2239600   -0.1881301 
H    -3.8492625    0.0997863   -0.6602925 
H    -2.8642526   -0.5008574    0.5637527 
C    -1.4647312    2.1935005   -0.0961557 
H    -2.6925302    1.4842009    1.5093138 
N    -0.4319673    2.5466856    0.8245071 
N    -1.2684938    2.4586700   -1.4859170 
H    -0.2619011    2.6989941   -1.6203748 
H    -1.8105556    3.3224137   -1.6997860 
H    -0.5231124    2.3539776    1.8445083 
