15
Energy =
C    -3.9576920    2.2731588   -0.2868827 
C    -2.7303302    1.6676543    0.4402994 
H    -3.6514405    2.9469077   -1.1166486 
H    -4.5606353    2.8761696    0.4244913 
H    -4.6345739    1.5160279   -0.7301566 
N    -2.7628551    0.1891608    0.4403282 
H    -1.9063200   -0.2055196   -0.0164959 
H    -3.5641203   -0.2070962   -0.0994849 
C    -1.4231302    2.2130722   -0.1259951 
H    -2.7723246    1.9954773    1.5059721 
N    -0.5707177    3.0446114    0.6568502 
N    -1.0466120    1.9288467   -1.4690409 
H    -0.0641660    1.5794385   -1.4250811 
H    -1.0039083    2.8499353   -1.9576025 
H    -0.8001208    3.2900708    1.6438662 
