15
Energy =
C    -3.8641497    1.9832237   -0.4080174 
C    -2.6524510    1.9671914    0.5471144 
H    -4.5771992    2.7786249   -0.1034933 
H    -4.4181571    1.0203858   -0.4039528 
H    -3.5608623    2.1898187   -1.4585349 
N    -2.5911462    0.6834381    1.2565638 
H    -2.6071172   -0.1104242    0.5739226 
H    -3.4418476    0.5839843    1.8596233 
C    -1.3469586    2.2748000   -0.1791718 
H    -2.7692545    2.7814929    1.3051781 
N    -0.9993787    3.6232501   -0.4735001 
N    -0.5323297    1.2398720   -0.7233957 
H    -1.1500661    0.6428382   -1.3125157 
H    -0.2028499    0.6665953    0.0835908 
H    -1.5991330    4.4170463   -0.1640493 
