15
Energy =
C    -3.3097044    2.4627337    1.0930366 
C    -2.0741988    1.8613682    0.3917801 
H    -3.3279982    3.5689746    1.0392622 
H    -3.2975415    2.2048727    2.1744737 
H    -4.2418729    2.0592875    0.6418499 
N    -1.9447386    0.4458221    0.8108854 
H    -1.8252760   -0.2213513    0.0253431 
H    -2.7936408    0.0936584    1.3137011 
C    -2.0965602    2.1156862   -1.1357374 
H    -1.1699423    2.4065297    0.7566836 
N    -1.7482085    1.1241365   -2.1041769 
N    -2.2399284    3.4452120   -1.6449339 
H    -2.4684161    4.1176656   -0.8860231 
H    -3.0538534    3.4225329   -2.2976453 
H    -1.2795911    0.2161371   -1.9175077 
