15
Energy =
C    -3.9049901    2.4592146    0.3349625 
C    -2.6322148    1.5658273    0.3541357 
H    -4.7858320    1.9738680   -0.1293992 
H    -3.7548187    3.4087982   -0.2176515 
H    -4.1928241    2.7264284    1.3733212 
N    -2.9327660    0.1967202   -0.1240262 
H    -2.2811983   -0.0930511   -0.8910327 
H    -3.8858202    0.1017888   -0.5415155 
C    -1.4196910    2.1747839   -0.3583472 
H    -2.3016400    1.4813835    1.4171303 
N    -0.1787433    1.4734331   -0.3560552 
N    -1.3969590    3.5443879   -0.7494550 
H    -0.9355263    3.5703297   -1.6857088 
H    -0.7449418    4.0232357   -0.0899068 
H    -0.1075054    0.5108932    0.0404653 
