15
Energy =
C    -3.8745215    2.2771626   -0.5925741 
C    -2.8490164    1.7697671    0.4281881 
H    -3.6342537    1.8853523   -1.6042750 
H    -3.8607478    3.3881420   -0.6303640 
H    -4.8961037    1.9500868   -0.3061494 
N    -2.8873927    0.2972058    0.4999722 
H    -3.6021880   -0.1195506   -0.1423981 
H    -3.1548367    0.0047857    1.4689050 
C    -1.4572234    2.2817140    0.0883763 
H    -3.0975210    2.2089461    1.4259151 
N    -0.3976937    1.4089815   -0.2968333 
N    -1.1737424    3.6705530    0.2179635 
H    -0.7324887    3.9574681   -0.6833098 
H    -0.4276861    3.7464424    0.9441512 
H    -0.5631596    0.3827204   -0.3748798 
