15
Energy =
C    -3.9152243    2.4436816   -0.1804129 
C    -2.7587611    1.6888970    0.4873262 
H    -4.8895128    2.1082395    0.2331941 
H    -3.9168730    2.2400610   -1.2733915 
H    -3.8440785    3.5346221    0.0049884 
N    -3.0637505    0.2542799    0.4040505 
H    -3.9687341    0.0608676    0.8938484 
H    -2.3450618   -0.2759535    0.9514058 
C    -1.3969790    1.9987096   -0.1426206 
H    -2.6876314    2.0000906    1.5579262 
N    -1.1116311    3.2665915   -0.7385750 
N    -0.3090596    1.0957892    0.0567827 
H     0.5572237    1.5597334   -0.2959578 
H    -0.4878197    0.2932048   -0.5858103 
H    -1.8190425    4.0229180   -0.8379862 
