15
Energy =
C    -3.9655423    2.3308187   -0.1324462 
C    -2.7482667    1.5999308    0.4354683 
H    -3.9711797    3.3936897    0.1899796 
H    -4.8926218    1.8436621    0.2388965 
H    -3.9775887    2.2729993   -1.2411453 
N    -2.8096127    0.2088367   -0.0196294 
H    -2.0428541   -0.3301654    0.4494357 
H    -2.5983824    0.1749972   -1.0452577 
C    -1.4038345    2.2400700    0.0939987 
H    -2.8287611    1.6234677    1.5496281 
N    -1.2630804    3.2681265   -0.8876769 
N    -0.2373304    1.7985061    0.7848822 
H    -0.2644938    2.2459312    1.7268877 
H     0.5894534    2.2074461    0.2939568 
H    -2.0602532    3.6250809   -1.4539064 
