15
Energy =
C    -3.7398942    1.9196408   -0.8045660 
C    -2.8152810    1.9026464    0.4311870 
H    -4.5399698    2.6784509   -0.6693934 
H    -4.2367324    0.9404757   -0.9738624 
H    -3.1885901    2.1828028   -1.7340773 
N    -2.8517149    0.5802490    1.0659079 
H    -2.6386819   -0.1654025    0.3621306 
H    -3.8194779    0.3962233    1.4219399 
C    -1.3866251    2.3120938    0.0872077 
H    -3.1846616    2.6563714    1.1702360 
N    -0.9419578    3.6440339    0.3238583 
N    -0.4810464    1.4018630   -0.5326737 
H    -0.9713604    0.9829065   -1.3509268 
H    -0.3048729    0.6429189    0.1607001 
H    -1.5672729    4.3635286    0.7439808 
