15
Energy =
C    -3.8407576    2.6749991    0.0251074 
C    -2.5275947    2.0535496    0.5482265 
H    -3.8643224    2.8795617   -1.0545589 
H    -4.0373992    3.6333284    0.5505868 
H    -4.7077613    2.0122033    0.2380732 
N    -2.8842160    0.8541592    1.3151373 
H    -2.0391066    0.5251910    1.8404900 
H    -3.1274303    0.0851553    0.6466561 
C    -1.4249283    1.7427214   -0.4732502 
H    -2.0591411    2.7905639    1.2464413 
N    -1.4676646    2.1107418   -1.8527990 
N    -0.2180801    1.1571656    0.0017522 
H     0.5364514    1.8536769   -0.1865017 
H    -0.0253386    0.3450817   -0.6253757 
H    -2.2330386    2.6239650   -2.3310323 
