15
Energy =
C    -3.8628972    2.5293928    0.1357123 
C    -2.6928082    1.5848409    0.4297070 
H    -4.7925038    2.1473445    0.6070817 
H    -4.0377758    2.5894683   -0.9604273 
H    -3.6620692    3.5433619    0.5429970 
N    -2.9924484    0.2870011   -0.1848448 
H    -3.9100586   -0.0684918    0.1735037 
H    -2.2832501   -0.4165160    0.1249797 
C    -1.3342762    2.1154438   -0.0486776 
H    -2.6188201    1.4723327    1.5383088 
N    -1.2048331    3.2805250   -0.8620617 
N    -0.1304281    1.4804400    0.3785562 
H    -0.1208307    0.5268343   -0.0420576 
H    -0.1640720    1.3887973    1.4162398 
H    -2.0175152    3.7952868   -1.2575533 
