15
Energy =
C    -3.7091478    2.7859718    0.4009430 
C    -2.5693795    1.7737160    0.5847007 
H    -4.1479310    2.6987620   -0.6163408 
H    -3.3314393    3.8222330    0.5376058 
H    -4.5084387    2.6115156    1.1519225 
N    -3.1253068    0.4157026    0.5292084 
H    -3.6876364    0.3000333   -0.3474416 
H    -3.7826270    0.2777530    1.3324310 
C    -1.4557029    1.9876555   -0.4344480 
H    -2.0883163    1.9356754    1.5806854 
N    -0.9875785    0.9360275   -1.2790687 
N    -0.7792235    3.2429976   -0.4742358 
H    -1.3636351    3.8671579   -1.0714736 
H     0.1116621    3.0976676   -1.0001991 
H    -1.3825032   -0.0265065   -1.2178104 
