15
 energy: -2.400410120419 gnorm: 0.000659185485 xtb: 6.6.0 (2ccbbd7)
C           -3.79767288726129        2.29995999603871       -0.43299302743240
C           -2.77316070144210        1.80773017301341        0.57767958922393
H           -3.58300866202830        1.88791517938900       -1.41865937408779
H           -3.78661967123684        3.38720222339327       -0.51897839723505
H           -4.80486098062880        1.98787811260414       -0.15542032078119
N           -2.86837961541240        0.36253679349632        0.76572129885242
H           -2.12702658064684        0.03433155271979        1.37164936017126
H           -2.77113388573604       -0.10518418186781       -0.12488942905115
C           -1.38006140674091        2.22929475495323        0.17739610626188
H           -2.98866444713048        2.26764977176841        1.55655588864741
N           -0.98624310940121        3.41936538421096        0.41013683916580
N           -0.57306856885552        1.31674865614332       -0.47709263879468
H           -0.72988847332672        0.31877253816578       -0.40496840916658
H            0.40563064261051        1.53214533424172       -0.58547199166387
H           -1.57803785496308        4.06610738392980        0.86196708619000
