15
Energy =
C    -3.8090121    2.1784504   -0.7736111 
C    -2.8243822    1.7457304    0.3125821 
H    -3.4489733    1.8547994   -1.7738937 
H    -3.9448294    3.2798161   -0.7726940 
H    -4.7986371    1.7065139   -0.5899663 
N    -2.8832386    0.2835797    0.4138970 
H    -2.2254519   -0.0437483    1.1605259 
H    -2.5967939   -0.1568266   -0.4922585 
C    -1.4171648    2.2923161    0.0471708 
H    -3.1580424    2.1785845    1.2869449 
N    -0.3083211    1.4449115   -0.2447839 
N    -1.1628292    3.6916332    0.1548525 
H    -1.4957080    4.0102247    1.0905442 
H    -1.7227191    4.1734797   -0.5804481 
H    -0.3807615    0.4105682   -0.3250060 
