15
Energy =
C    -3.8493494    2.5546631   -0.1023908 
C    -2.7247484    1.7017931    0.4790345 
H    -4.0233882    2.2914288   -1.1670939 
H    -3.6138742    3.6367247   -0.0142121 
H    -4.7929957    2.3481980    0.4455479 
N    -3.0535335    0.2975839    0.1962384 
H    -3.2548137   -0.2042951    1.0920977 
H    -2.2490468   -0.2028311   -0.2537471 
C    -1.3324450    2.0861833   -0.0350232 
H    -2.7128510    1.8853597    1.5820239 
N    -1.1388978    2.7138073   -1.3001556 
N    -0.1749086    1.8343823    0.7618451 
H    -0.4239924    1.1909672    1.5445549 
H     0.1023645    2.7503084    1.1774520 
H    -1.9180553    2.8658023   -1.9725702 
