15
Energy =
C    -3.8537128    2.4268167    0.1775948 
C    -2.6720784    1.4949842    0.4190312 
H    -3.7109381    3.3908942    0.7107062 
H    -4.7875357    1.9487730    0.5423104 
H    -3.9753697    2.6259002   -0.9078659 
N    -2.9304884    0.2523597   -0.3237821 
H    -2.9100921   -0.5602506    0.3356418 
H    -2.1887495    0.0647851   -1.0399117 
C    -1.3551898    2.1576937    0.0227092 
H    -2.6238829    1.2832623    1.5161107 
N    -1.1038866    2.5426839   -1.3250022 
N    -0.3507975    2.4189417    0.9997097 
H    -0.0889783    1.5059381    1.4314046 
H    -0.7772646    3.0232083    1.7357332 
H    -1.8108767    2.3681264   -2.0699699 
