15
 energy: -2.400996719537 gnorm: 0.000914899301 xtb: 6.6.0 (2ccbbd7)
C           -3.84447846548178        2.57742760159851        0.08357577763715
C           -2.77263713993941        1.53855321610825        0.38611113242863
H           -3.83129473406631        2.83450263180028       -0.97520881064040
H           -3.68764170192165        3.49744555326724        0.64684883107961
H           -4.84023808181607        2.20205071112696        0.32125906448176
N           -3.05271906327263        0.27934574188768       -0.29934817720744
H           -3.05451511826741        0.44112261157779       -1.29775604526546
H           -3.97397737219528       -0.06001220055670       -0.05390027329702
C           -1.39268480350031        2.04339839713172        0.02991433306103
H           -2.76323365963570        1.32417185205502        1.46752847502043
N           -0.55804837661271        1.26292355446468       -0.52932541150970
N           -1.04451009147827        3.34189359778232        0.37211000872858
H           -0.06949966990260        3.58568656102030        0.30310439565760
H           -1.47678759518111        3.81387922158105        1.15494108091558
H           -0.82055096152920        0.32816035377082       -0.72476829692062
