15
Energy =
C    -3.6330356    2.3677882    0.8480990 
C    -2.5343140    1.4350122    0.3189902 
H    -3.2075312    3.0997416    1.5684551 
H    -4.4120559    1.7758743    1.3752163 
H    -4.1157409    2.9203673    0.0140945 
N    -3.0984595    0.4735877   -0.6476798 
H    -2.6875312    0.5909282   -1.6036665 
H    -4.1368802    0.5628580   -0.7509947 
C    -1.3508226    2.2155484   -0.2560714 
H    -2.1414197    0.8514106    1.1862722 
N    -0.0210521    1.9121354    0.1533545 
N    -1.5362805    3.2543131   -1.2177586 
H    -2.0487371    4.0295590   -0.7459188 
H    -2.1423620    2.8804736   -1.9787351 
H     0.1848205    1.1356920    0.8169556 
