15
Energy =
C    -3.8496856    2.3172323   -0.5265306 
C    -2.7962294    1.7576756    0.4476351 
H    -4.5150017    1.5143790   -0.9101760 
H    -3.3815694    2.7964340   -1.4142327 
H    -4.4794512    3.0773501   -0.0188924 
N    -2.9727718    0.3057505    0.5594795 
H    -3.9062490    0.1113802    0.9926160 
H    -2.2633118   -0.0701528    1.2322862 
C    -1.3801218    2.0923080   -0.0039864 
H    -2.9530760    2.2253677    1.4495910 
N    -0.4907191    2.8045350    0.8545363 
N    -0.9179310    1.6858023   -1.2915052 
H    -0.9558760    0.6430542   -1.2932584 
H     0.0903234    1.9471553   -1.3592510 
H    -0.7843255    3.1226052    1.8029190 
