15
Energy =
C    -3.7935401    2.3436891   -0.5655530 
C    -2.7919724    1.7603650    0.4299827 
H    -3.7249066    1.8104615   -1.5376784 
H    -3.6032318    3.4267965   -0.7257299 
H    -4.8277714    2.2217994   -0.1804723 
N    -2.9952766    0.3106368    0.4880445 
H    -3.9577635    0.1133970    0.8513609 
H    -2.3354126   -0.0940025    1.1945177 
C    -1.3569305    2.0958773    0.0344635 
H    -2.9880442    2.2104085    1.4337554 
N    -0.5496694    2.9161994    0.8730554 
N    -0.7710320    1.5636376   -1.1518339 
H    -1.3250438    1.9232735   -1.9567700 
H    -0.9077296    0.5299423   -1.1151017 
H    -0.9156352    3.3219426    1.7601474 
