15
Energy =
C    -3.9116483    2.0449614   -0.1877202 
C    -2.6020303    1.3576183    0.1962123 
H    -4.2474259    2.7284897    0.6210969 
H    -4.7058373    1.2899585   -0.3654642 
H    -3.7769445    2.6336535   -1.1210820 
N    -2.2003604    0.4824898   -0.9088116 
H    -2.8995132   -0.2906083   -1.0079176 
H    -1.2901298    0.0228103   -0.6683535 
C    -1.5232300    2.3894087    0.4997836 
H    -2.7679644    0.7509203    1.1192820 
N    -0.9133414    3.1338794   -0.5487341 
N    -1.1839154    2.7108841    1.8471833 
H    -0.8135582    1.8426454    2.2905897 
H    -2.0641919    2.9829156    2.3367740 
H    -1.1620034    2.9311213   -1.5405869 
