15
Energy =
C    -3.5689410    2.7087108   -0.6902534 
C    -2.9130296    1.8432788    0.4007831 
H    -4.2562629    2.1113410   -1.3270643 
H    -2.8154252    3.1708987   -1.3647934 
H    -4.1552189    3.5290195   -0.2256751 
N    -3.3711403    0.4581877    0.2461045 
H    -4.3983994    0.4189708    0.4470507 
H    -2.9152401   -0.1348079    0.9797879 
C    -1.3968675    1.9247819    0.3356162 
H    -3.2174539    2.2295107    1.4052215 
N    -0.6829908    1.2922375   -0.7235544 
N    -0.6911035    2.7658185    1.2462065 
H     0.3002643    2.8182258    0.9208481 
H    -0.6720494    2.2603062    2.1586492 
H    -1.2070029    0.7016506   -1.4053764 
