15
Energy =
C    -3.8378203    2.3242800   -0.5068189 
C    -2.7714031    1.7758600    0.4540979 
H    -4.5193882    3.0180839    0.0287055 
H    -4.4570594    1.5013718   -0.9267561 
H    -3.3923278    2.8757715   -1.3629815 
N    -2.9197756    0.3121509    0.5145813 
H    -3.0857775    0.0157447    1.5048911 
H    -2.0491356   -0.1822537    0.2045281 
C    -1.3643401    2.2027237    0.0414911 
H    -2.9597788    2.2141816    1.4661576 
N    -0.8180500    1.7974643   -1.2089707 
N    -0.5773958    3.0370475    0.8873716 
H    -0.4602251    2.5385135    1.7963616 
H    -1.1185545    3.9128349    1.0569706 
H    -1.3692534    1.1893395   -1.8513515 
