15
Energy =
C    -3.8905253    2.4856286   -0.2357326 
C    -2.7780761    1.6842397    0.4418623 
H    -3.7822061    3.5692846   -0.0169807 
H    -4.8755196    2.1430489    0.1475294 
H    -3.8826619    2.3210377   -1.3335302 
N    -2.9703644    0.2723425    0.1008375 
H    -2.2887095   -0.3007781    0.6530767 
H    -2.7270141    0.1263736   -0.9075821 
C    -1.3663855    2.1527800    0.1066902 
H    -2.8858823    1.8149008    1.5473310 
N    -1.0726596    3.0185662   -0.9887607 
N    -0.2866773    1.7171555    0.9227067 
H     0.1861968    2.5828627    1.2648343 
H     0.3911144    1.2535732    0.2781692 
H    -1.8017246    3.3657075   -1.6458552 
