15
Energy =
C    -4.0018762    2.0151310   -0.3198998 
C    -2.7259651    1.6892322    0.4761479 
H    -4.5056375    1.0895642   -0.6726077 
H    -3.7878982    2.6399167   -1.2138146 
H    -4.7234463    2.5653273    0.3196310 
N    -2.6016328    0.2327209    0.5952689 
H    -1.7670568    0.0123664    1.1876844 
H    -2.3991836   -0.1679128   -0.3525937 
C    -1.4841461    2.3056788   -0.1545283 
H    -2.8342907    2.1208237    1.5002667 
N    -0.7171744    3.2853364    0.5397617 
N    -1.0661273    1.9139270   -1.4575946 
H    -0.0674723    1.6258320   -1.3640968 
H    -1.0642411    2.7839053   -2.0340942 
H    -0.9828866    3.6139892    1.4929428 
