15
Energy =
C    -3.9506499    2.3389419   -0.3008985 
C    -2.7729100    1.6325536    0.3679244 
H    -4.9011285    1.8428837   -0.0117423 
H    -3.8478755    2.2912761   -1.4052905 
H    -3.9956477    3.4043936    0.0095594 
N    -2.8612035    0.2136009    0.0048118 
H    -2.2873935   -0.3580268    0.6664131 
H    -2.4837550    0.0684778   -0.9622330 
C    -1.4393881    2.2676275   -0.0207548 
H    -2.8739198    1.7469437    1.4741649 
N    -0.2195967    1.5331020    0.0604834 
N    -1.3455458    3.6833670   -0.1412632 
H    -0.6891644    3.8632393   -0.9329900 
H    -0.8611029    4.0185762    0.7205040 
H    -0.1948547    0.5143912    0.2744453 
