15
 energy: -2.400394685863 gnorm: 0.000667641072 xtb: 6.6.0 (2ccbbd7)
C           -3.88846485965688        2.42559635236493       -0.19156284441821
C           -2.71454875426557        1.73804780905987        0.49157562150015
H           -3.88246675104556        2.21012699355698       -1.25968096934667
H           -3.84688441701378        3.50876450154484       -0.07473013360297
H           -4.84096105313749        2.07999900872605        0.21058589836224
N           -2.82643618256095        0.28372889196071        0.40257040216223
H           -2.82775940843357        0.01540699012099       -0.57240515913477
H           -3.70561102240575       -0.02802161483941        0.79505185515056
C           -1.39776111023724        2.21385763771812       -0.07694578686767
H           -2.71000406191670        1.99623141444040        1.56346682393254
N           -1.06805829726946        3.44167134625345        0.01042125485175
N           -0.55795609997927        1.28347238686623       -0.66448903706714
H            0.39562707043348        1.56224921148186       -0.83799716833810
H           -0.61160153214149        0.30822739551140       -0.38623389640285
H           -1.66249200284042        4.09227621166387        0.45208623793464
