15
Energy =
C    -4.0840341    1.9120309    0.0292470 
C    -2.6390810    1.5084354    0.3793990 
H    -4.7076980    1.9487511    0.9468179 
H    -4.5478005    1.1916925   -0.6781649 
H    -4.1297773    2.9118956   -0.4560325 
N    -2.2890650    0.2911295   -0.3604138 
H    -2.9000503   -0.4919211   -0.0288026 
H    -1.3102043    0.0140144   -0.1110462 
C    -1.6514791    2.6271797    0.0695309 
H    -2.5839774    1.2997517    1.4748474 
N    -0.8007618    3.1498208    1.0890516 
N    -1.5566487    3.1610875   -1.2513112 
H    -1.2391505    2.3740416   -1.8581498 
H    -0.7892996    3.8692837   -1.2548537 
H    -0.8387978    2.7952636    2.0684523 
