15
Energy =
C    -3.8136695    2.0425630   -0.5101445 
C    -2.7059091    1.9088847    0.5396328 
H    -3.6239793    1.3675112   -1.3718816 
H    -3.8622624    3.0862631   -0.8890775 
H    -4.7994931    1.7870532   -0.0668305 
N    -2.7115898    0.5451065    1.0829825 
H    -2.7148782   -0.1576757    0.3067151 
H    -3.5941633    0.3950442    1.6265521 
C    -1.3466900    2.2877886   -0.0367793 
H    -2.8996426    2.6299521    1.3720987 
N    -0.9937716    3.6590633   -0.1819462 
N    -0.4527399    1.3072673   -0.5572887 
H    -0.9836954    0.7526833   -1.2607706 
H    -0.2117207    0.6740875    0.2362167 
H    -1.6346778    4.4187094    0.1304223 
