15
Energy =
C    -3.8992281    2.5190614   -0.3382049 
C    -2.7812619    1.7374623    0.3869559 
H    -3.4834506    3.2350901   -1.0815666 
H    -4.4897812    3.1058094    0.3962855 
H    -4.6006015    1.8503319   -0.8802135 
N    -3.0034964    0.2952501    0.2215444 
H    -3.0635717    0.0653639   -0.7994063 
H    -3.9231003    0.0370205    0.6511282 
C    -1.3909407    2.1652131   -0.0749534 
H    -2.8106083    1.9832634    1.4764828 
N    -0.4102435    1.2217265   -0.5040040 
N    -1.0179193    3.5391546    0.0133151 
H    -0.1209354    3.6503888   -0.5107756 
H    -0.7886388    3.7156311    1.0155049 
H    -0.6078280    0.1985325   -0.4943713 
