15
Energy =
C    -3.9840590    2.0860512   -0.2730921 
C    -2.7215796    1.6315174    0.4756849 
H    -4.6246447    2.7033573    0.3910050 
H    -4.5851437    1.2113581   -0.6057348 
H    -3.7480991    2.6879877   -1.1754151 
N    -2.7061096    0.1589926    0.4885496 
H    -2.8161277   -0.1862297    1.4701387 
H    -1.7907896   -0.2187865    0.1435030 
C    -1.4535313    2.2291175   -0.1336421 
H    -2.7860101    2.0120958    1.5248903 
N    -0.7525125    3.2754247    0.5365687 
N    -0.9285353    1.7265656   -1.3634442 
H    -0.0546175    2.2575905   -1.5751410 
H    -1.6141588    1.9728331   -2.1085791 
H    -1.0915415    3.6689375    1.4404144 
