15
Energy =
C    -3.8159557    2.6139465   -0.0712230 
C    -2.7145991    1.6493478    0.4208654 
H    -4.3269256    3.0843013    0.7959167 
H    -4.5913270    2.0932240   -0.6730371 
H    -3.4039672    3.4356656   -0.6970377 
N    -2.9737486    0.2936063   -0.0732019 
H    -3.0011775    0.2935627   -1.1202415 
H    -3.9101066   -0.0305735    0.2654009 
C    -1.3151363    2.1078462    0.0246830 
H    -2.7360581    1.6233699    1.5378839 
N    -0.9711683    2.3206190   -1.3408842 
N    -0.3010632    2.2833794    1.0108218 
H    -0.1912044    1.3692579    1.5022469 
H    -0.6470737    2.9904643    1.6945781 
H    -1.6715918    2.1751647   -2.0974400 
