15
Energy =
C    -3.9871345    2.2068649   -0.4041880 
C    -2.8295638    1.7757228    0.5040549 
H    -3.8300339    1.8340045   -1.4388710 
H    -4.0541000    3.3157402   -0.4402495 
H    -4.9509686    1.8124932   -0.0194020 
N    -2.8333531    0.3122825    0.6239450 
H    -2.8688964   -0.1225508   -0.3289851 
H    -3.7018215    0.0120764    1.1262809 
C    -1.4949547    2.3140435   -0.0033436 
H    -2.9781263    2.2251438    1.5150405 
N    -0.3787681    1.4575400   -0.2466978 
N    -1.3265498    3.7213906   -0.1759730 
H    -0.3926375    3.8751389   -0.6177424 
H    -1.2685802    4.1317647    0.7812992 
H    -0.4367295    0.4350662   -0.0549031 
