15
Energy =
C    -3.7066095    2.4236071   -0.6892251 
C    -2.8480793    1.7753308    0.3947803 
H    -3.4788958    3.5078690   -0.7693334 
H    -4.7844272    2.3006620   -0.4551892 
H    -3.4981948    1.9410072   -1.6690581 
N    -3.1342133    0.3381664    0.4120748 
H    -4.1378544    0.1925327    0.6729334 
H    -2.5718746   -0.1074866    1.1751085 
C    -1.3701888    2.0278594    0.1343968 
H    -3.1146182    2.2276088    1.3801514 
N    -0.5560476    2.6617497    1.1195451 
N    -0.7751565    1.6279753   -1.0994873 
H    -0.8538876    0.5880630   -1.1301466 
H     0.2435690    1.8474571   -1.0411212 
H    -0.9481629    2.9718341    2.0343424 
