15
Energy =
C    -3.1527291    2.7613617    1.1555024 
C    -2.5738649    1.5243757    0.4702493 
H    -3.5742850    3.4687139    0.4121315 
H    -2.3704057    3.2786214    1.7513574 
H    -3.9751228    2.4549090    1.8370340 
N    -3.6393035    0.8775055   -0.3015787 
H    -3.2501785    0.0291310   -0.7778385 
H    -3.9866693    1.5173792   -1.0532450 
C    -1.3498483    1.8549117   -0.3838732 
H    -2.2433275    0.8203189    1.2717207 
N    -0.0798225    1.2978554   -0.0627299 
N    -1.4297957    2.7243917   -1.5123813 
H    -1.7945518    3.6433823   -1.1853543 
H    -2.1056991    2.3121485   -2.1896378 
H     0.0525201    0.6521303    0.7441647 
