15
Energy =
C    -3.8584227    2.3250422   -0.5921934 
C    -2.7833446    1.7441944    0.3421076 
H    -3.6717140    2.0012819   -1.6391435 
H    -3.8708472    3.4340111   -0.5507015 
H    -4.8668681    1.9744885   -0.2826859 
N    -2.9664574    0.2793344    0.4439095 
H    -2.1241731   -0.2749310    0.2016704 
H    -3.7200211   -0.0811028   -0.1881418 
C    -1.3740296    2.2396340   -0.0550151 
H    -2.9550700    2.1655975    1.3619040 
N    -0.2491628    1.3888647   -0.2811027 
N    -1.1191141    3.6434027   -0.1103297 
H    -1.4931611    4.0819602    0.7588601 
H    -1.6306359    4.0275337   -0.9331500 
H    -0.2064407    0.3550366   -0.2047269 
