15
Energy =
C    -3.5930048    2.9099505    0.1725188 
C    -2.8015839    1.6294179    0.4697690 
H    -3.0755816    3.7905646    0.6120692 
H    -4.6093912    2.8452079    0.6153099 
H    -3.6850920    3.0681043   -0.9236021 
N    -3.4782249    0.4590035   -0.1140484 
H    -4.3705760    0.7124429   -0.6003389 
H    -3.7363273   -0.2107483    0.6476164 
C    -1.3813814    1.7332260   -0.0540006 
H    -2.7252427    1.5182843    1.5803561 
N    -1.1157253    1.7146268   -1.4551314 
N    -0.3078260    1.9791853    0.8530857 
H     0.5378578    2.1978868    0.2804642 
H    -0.1121225    1.0675840    1.3209637 
H    -1.8952084    1.5351341   -2.1235812 
