15
Energy =
C    -3.9235456    2.3741574   -0.4012438 
C    -2.7784586    1.7580917    0.4227304 
H    -4.5524222    1.5918092   -0.8768614 
H    -3.5433574    3.0394044   -1.2070526 
H    -4.5825812    2.9790455    0.2559461 
N    -2.9377656    0.2988480    0.4267062 
H    -2.2070839   -0.1297839    1.0421373 
H    -2.8102605   -0.0770410   -0.5425492 
C    -1.4091079    2.2306423   -0.0677910 
H    -2.8642945    2.1247863    1.4744232 
N    -0.4103689    1.3364231   -0.5612595 
N    -1.0954768    3.6201040    0.0029938 
H    -0.2055126    3.7667505   -0.5247259 
H    -0.8738809    3.8218500    1.0022408 
H    -0.5480103    0.3073425   -0.6322906 
