15
Energy =
C    -3.7919813    2.4967756   -0.5811097 
C    -2.8523732    1.7997712    0.4011351 
H    -3.6661461    3.5988341   -0.5218116 
H    -4.8441723    2.2419348   -0.3325137 
H    -3.5918781    2.1663776   -1.6212344 
N    -3.0901548    0.3543622    0.3289270 
H    -2.4794645   -0.1240195    1.0330796 
H    -2.8038626   -0.0106653   -0.6090486 
C    -1.3986252    2.1581237    0.1449019 
H    -3.0946979    2.1581505    1.4330115 
N    -0.7552118    1.8519109   -1.0894618 
N    -0.6626617    2.8599555    1.1383493 
H    -0.3451998    3.7474100    0.6892777 
H     0.2004284    2.2974029    1.3078876 
H    -1.2593467    1.3567912   -1.8549742 
