15
Energy =
C    -3.9180502    2.3383077    0.3669317 
C    -2.6426660    1.4610105    0.4355483 
H    -3.6918289    3.3615779   -0.0057685 
H    -4.3532826    2.4481191    1.3829143 
H    -4.7121062    1.9277626   -0.2881293 
N    -2.7685759    0.2422439   -0.3856663 
H    -3.6797152    0.1647830   -0.8908686 
H    -2.6963142   -0.6022685    0.2286061 
C    -1.4060053    2.2378058    0.0253826 
H    -2.4704044    1.1767570    1.5044905 
N    -1.1756338    2.5675929   -1.3411994 
N    -0.6242973    2.8890916    1.0207591 
H    -0.8517818    3.9051195    0.9490827 
H     0.3690811    2.7885490    0.7161283 
H    -1.7820339    2.1457868   -2.0769179 
