15
Energy =
C    -3.6409922    2.4212819   -0.8652948 
C    -2.9065388    1.8875071    0.3745262 
H    -4.2564651    1.6253046   -1.3378864 
H    -2.9406629    2.8085720   -1.6360641 
H    -4.3223587    3.2498201   -0.5792334 
N    -3.2582770    0.4669117    0.5412778 
H    -3.6791947    0.3217627    1.4888362 
H    -2.4134982   -0.1513712    0.4995954 
C    -1.4019590    2.1101914    0.2828863 
H    -3.2575877    2.4714172    1.2625959 
N    -0.6351914    1.5062485   -0.7574175 
N    -0.7485584    2.9556313    1.2273313 
H     0.2420253    3.0682925    0.9148753 
H    -0.7126655    2.4225433    2.1236602 
H    -1.0993693    0.8892249   -1.4585095 
