15
Energy =
C    -4.0187694    2.2585023   -0.1045919 
C    -2.7330673    1.5416568    0.3702812 
H    -4.6079112    1.6089942   -0.7884170 
H    -3.8534714    3.1911180   -0.6614182 
H    -4.6650493    2.4952119    0.7667077 
N    -2.7754394    0.1651398   -0.1418058 
H    -3.5852747   -0.3337524    0.2952439 
H    -1.9226670   -0.3512688    0.1804060 
C    -1.3892738    2.2024056    0.0255968 
H    -2.7487828    1.5105846    1.4870578 
N    -1.2450385    3.4970633   -0.5637521 
N    -0.1947969    1.5574233    0.4560767 
H     0.2775884    2.2222855    1.1073625 
H     0.4127536    1.4954959   -0.3904563 
H    -2.0103515    4.1387122   -0.8465399 
