15
 energy: -2.400323836204 gnorm: 0.000621984189 xtb: 6.6.0 (2ccbbd7)
C           -3.76905598916755        2.28911027553839       -0.57616943355268
C           -2.80685704469868        1.82929658588687        0.50711116191470
H           -3.71685060674959        3.36854646267687       -0.72407021370092
H           -4.79920415030272        2.02463318388388       -0.33527290752063
H           -3.51715895257489        1.81252303391905       -1.52327783108052
N           -2.87805962357429        0.38031518942253        0.69959090569173
H           -3.81056367089913        0.09834425030022        0.97444287842017
H           -2.23877835893976        0.09251772704896        1.42872405650515
C           -1.39505661351036        2.23163749134281        0.16184551510467
H           -3.07104886710547        2.32078069985376        1.45889446199138
N           -0.90729101201630        3.32697951627639        0.59411545436846
N           -0.68250586981875        1.37851464200595       -0.65771548464177
H           -0.98367750818874        0.41571921545867       -0.76440319511245
H            0.31820561462402        1.48257366930828       -0.72881116006186
H           -1.44342452822059        3.92573507625016        1.16510320557990
