15
Energy =
C    -3.8953635    2.5332578    0.1000848 
C    -2.7795292    1.4987449    0.3951726 
H    -3.4826240    3.4728313   -0.3290648 
H    -4.4135074    2.8075431    1.0436205 
H    -4.6697955    2.1711435   -0.6053638 
N    -2.9871771    0.2383913   -0.3418976 
H    -3.8508172    0.2308525   -0.9301719 
H    -3.0839248   -0.5528901    0.3363902 
C    -1.4024152    2.0561339    0.0819264 
H    -2.7829684    1.2945126    1.4952829 
N    -1.0218473    2.3437450   -1.2620825 
N    -0.5047046    2.3776674    1.1435351 
H     0.3025777    2.8892915    0.7223474 
H    -0.1242098    1.4675977    1.4832313 
H    -1.6711150    2.1021305   -2.0412906 
