15
Energy =
C    -3.9627515    2.2633378    0.2254512 
C    -2.5292110    1.7081098    0.4540497 
H    -4.3185510    2.7835950    1.1402907 
H    -4.7141355    1.4839902   -0.0127820 
H    -4.0145993    2.9835171   -0.6145813 
N    -2.5558191    0.2292648    0.5437313 
H    -1.8561210   -0.2459894   -0.0562680 
H    -3.4693361   -0.1956902    0.2667993 
C    -1.4973164    2.3209609   -0.5240968 
H    -2.1867939    2.0751835    1.4518018 
N    -0.4782314    1.5710489   -1.1875970 
N    -1.3868789    3.7427068   -0.6245899 
H    -1.4671504    4.1541575    0.3304620 
H    -2.1726514    4.0925509   -1.2120198 
H    -0.2645413    0.5607841   -1.0845786 
