15
Energy =
C    -3.8811611    2.2103074   -0.6433203 
C    -2.8215621    1.7604196    0.3908217 
H    -3.4820223    2.7192500   -1.5318696 
H    -4.6167669    2.8895326   -0.1635607 
H    -4.4461702    1.3371992   -1.0380041 
N    -3.0139393    0.3213793    0.6222180 
H    -3.9515745    0.1682038    1.0620105 
H    -2.3154104   -0.0160664    1.3267243 
C    -1.3506120    2.0643871    0.0670034 
H    -3.0094966    2.3089167    1.3463234 
N    -0.9116195    2.8958912   -1.0100075 
N    -0.3557462    1.6269771    0.9879464 
H     0.1695423    2.4798512    1.2809120 
H     0.3111062    1.0470751    0.4322843 
H    -1.5174872    3.3848752   -1.6961898 
