15
Energy =
C    -4.0134284    1.6541898   -0.1585905 
C    -2.6546549    1.7040737    0.5309338 
H    -4.7437202    1.1322727    0.4948645 
H    -3.9411506    1.0896302   -1.1118698 
H    -4.3841237    2.6801437   -0.3675736 
N    -2.2450050    0.3174115    0.8058879 
H    -2.0713873    0.2049522    1.8319932 
H    -1.3413611    0.0792788    0.3328239 
C    -1.6398191    2.4698478   -0.3059257 
H    -2.7705943    2.2700891    1.4891801 
N    -1.2290238    1.9980823   -1.5870853 
N    -1.2231940    3.7662085    0.1059076 
H    -1.6293130    4.4331969   -0.5868262 
H    -0.1892513    3.7942357   -0.0359260 
H    -1.5674388    1.0803069   -1.9487671 
