15
Energy =
C    -3.5783232    2.5815158   -0.8909299 
C    -2.9238559    1.9752013    0.3485314 
H    -3.3164864    2.0042021   -1.8011610 
H    -3.2514031    3.6349564   -1.0242212 
H    -4.6827017    2.5616290   -0.7739110 
N    -3.4110301    0.6018050    0.5093861 
H    -3.0158532    0.2018637    1.3930718 
H    -3.0618290    0.0011017   -0.2732171 
C    -1.4058060    2.0447441    0.2813556 
H    -3.2418573    2.5789419    1.2341543 
N    -0.6771494    1.4029996   -0.7647258 
N    -0.6905426    2.7779972    1.2736983 
H     0.3123701    2.8059393    0.9819151 
H    -0.7243648    2.2053385    2.1454193 
H    -1.1634823    0.8657073   -1.5128842 
