15
Energy =
C    -3.9791966    2.2474925   -0.0449644 
C    -2.6788619    1.6420182    0.5013581 
H    -4.0589182    2.0839463   -1.1404686 
H    -4.0077689    3.3408732    0.1533203 
H    -4.8556147    1.7806634    0.4531041 
N    -2.6465533    0.1850838    0.2614350 
H    -1.8552467   -0.0893383   -0.3675445 
H    -3.5238543   -0.1691643   -0.1870589 
C    -1.4628918    2.3569684   -0.0661298 
H    -2.6456255    1.8126894    1.6062065 
N    -1.1575973    2.3064411   -1.4574996 
N    -0.7102755    3.2331184    0.7636079 
H    -0.8598901    4.1934739    0.3828172 
H     0.2927305    3.0026274    0.5883421 
H    -1.7353861    1.7324383   -2.1078783 
