15
Energy =
C    -3.5839707    2.5870936   -0.7765817 
C    -2.9133414    1.8459031    0.3940478 
H    -4.2072127    3.4219004   -0.3930472 
H    -4.2387512    1.9106746   -1.3669330 
H    -2.8376317    3.0170235   -1.4798420 
N    -3.3177085    0.4362634    0.3558022 
H    -4.3457072    0.3755799    0.5473659 
H    -2.8511368   -0.0729805    1.1436793 
C    -1.4004459    1.9789024    0.3401486 
H    -3.2468407    2.3064486    1.3571541 
N    -0.6477513    1.2844124   -0.6511389 
N    -0.7401405    2.9222557    1.1819349 
H     0.2532944    2.9842586    0.8646581 
H    -0.7156929    2.4988387    2.1351264 
H    -1.1391556    0.6171539   -1.2848228 
