15
Energy =
C    -3.6072475    2.4010821   -0.7286976 
C    -2.8418135    1.7193746    0.4208517 
H    -4.3682982    3.0995564   -0.3219601 
H    -4.1307514    1.6559355   -1.3665498 
H    -2.9309580    2.9778382   -1.3968703 
N    -3.0552118    0.2701911    0.3271985 
H    -4.0557461    0.0619055    0.5529901 
H    -2.4865919   -0.2058983    1.0678788 
C    -1.3594636    2.0812743    0.3983368 
H    -3.2350830    2.0890311    1.3992105 
N    -0.9507162    3.4259431    0.6399248 
N    -0.3635810    1.1018509    0.1044222 
H     0.5612586    1.5860872    0.0829625 
H    -0.5549377    0.7811854   -0.8697598 
H    -1.6517418    4.1698125    0.8458140 
