15
Energy =
C    -3.9774565    2.3009246    0.1430675 
C    -2.6112384    1.6960659    0.5140783 
H    -4.7243596    1.5072439   -0.0754553 
H    -3.9190870    2.9482115   -0.7579142 
H    -4.3666227    2.9149663    0.9816241 
N    -2.7860829    0.2325360    0.5633483 
H    -2.7401230   -0.0938332    1.5568147 
H    -2.0728818   -0.3054324    0.0352008 
C    -1.4994210    2.2275600   -0.4068642 
H    -2.3312317    2.0728739    1.5285767 
N    -0.5039014    1.4190363   -1.0395640 
N    -1.3367470    3.6389654   -0.5061319 
H    -1.2502026    3.8496693   -1.5251170 
H    -0.4053357    3.8533395   -0.0863572 
H    -0.4137974    0.3854363   -0.9922867 
