15
Energy =
C    -3.8469962    2.3383237   -0.4685271 
C    -2.7964327    1.7113911    0.4455258 
H    -3.6894962    3.4345257   -0.5532836 
H    -4.8645793    2.1550571   -0.0645846 
H    -3.7856164    1.8790556   -1.4793868 
N    -3.0058246    0.2617788    0.4516655 
H    -3.9074686    0.0483399    0.9378464 
H    -2.2492853   -0.1912231    1.0164379 
C    -1.3884545    2.0586717   -0.0189212 
H    -2.9328914    2.1166302    1.4766658 
N    -0.5160646    2.8210738    0.8134209 
N    -0.9305462    1.6636634   -1.3104073 
H     0.1123454    1.6988041   -1.2899848 
H    -1.2353348    2.4140517   -1.9660000 
H    -0.8068955    3.1410039    1.7621572 
