15
Energy =
C    -3.7695563    1.8119626   -0.7732654 
C    -2.7916093    1.8709200    0.4108703 
H    -3.2631947    1.9894917   -1.7459571 
H    -4.5632572    2.5794973   -0.6574212 
H    -4.2631397    0.8173213   -0.8331907 
N    -2.8069527    0.5583005    1.0794750 
H    -3.1967510    0.6595477    2.0452314 
H    -1.8394502    0.1709638    1.1882972 
C    -1.3901392    2.2884797   -0.0315462 
H    -3.1523595    2.6572121    1.1189679 
N    -0.8506778    3.5518379    0.3419696 
N    -0.5773437    1.4141881   -0.8062061 
H     0.3582472    1.1769060   -0.4122942 
H    -0.9761845    1.0384458   -1.6929222 
H    -1.3994907    4.2408115    0.8984690 
