15
Energy =
C    -3.9444075    2.3631287    0.0819437 
C    -2.6470072    1.6978955    0.5475449 
H    -4.8041105    1.9320528    0.6398332 
H    -4.1083349    2.1785943   -1.0011570 
H    -3.9293905    3.4541255    0.2818692 
N    -2.8914678    0.2512886    0.5736796 
H    -2.0780111   -0.2257682    1.0304124 
H    -2.9498959   -0.1134429   -0.4063762 
C    -1.4321591    2.0616373   -0.3085506 
H    -2.4162271    2.0483103    1.5832043 
N    -1.3102543    3.3452342   -0.9238542 
N    -0.2819730    1.2160498   -0.2887790 
H     0.5132735    1.7505256   -0.7052018 
H    -0.4811821    0.4338915   -0.9492864 
H    -2.0599285    4.0662594   -0.8821233 
