15
Energy =
C    -3.8325292    2.5162017   -0.6256764 
C    -2.9118256    1.7470091    0.3289562 
H    -4.8840265    2.1788479   -0.5118070 
H    -3.5147897    2.3635949   -1.6794264 
H    -3.7902222    3.6048444   -0.4051838 
N    -3.0751184    0.3071102    0.0921070 
H    -2.9539787    0.0996936   -0.9281281 
H    -4.0512587    0.0243807    0.3448015 
C    -1.4627543    2.1988001    0.1841116 
H    -3.1995134    1.9827425    1.3824828 
N    -0.4047723    1.2754438   -0.0728317 
N    -1.1337030    3.5716316    0.3935663 
H    -0.1358070    3.7008725    0.1133019 
H    -1.1697179    3.7294141    1.4239486 
H    -0.5898595    0.2526510   -0.1456842 
