15
Energy =
C    -3.9183775    2.2468391   -0.5282762 
C    -2.8009589    1.6210123    0.3423256 
H    -4.7466246    2.6066323    0.1178998 
H    -4.3470800    1.4970775   -1.2286590 
H    -3.6042351    3.0865198   -1.1629607 
N    -2.7317424    0.1867265    0.0251205 
H    -3.6590216   -0.2546007    0.2302272 
H    -2.0621231   -0.2790541    0.6817586 
C    -1.4046271    2.2607039    0.2675281 
H    -3.0939182    1.7395905    1.4149117 
N    -1.0974444    3.4528275   -0.4620648 
N    -0.3728294    1.7144595    1.0889912 
H     0.3861397    2.4287402    1.1593033 
H     0.0345959    0.9251697    0.5414123 
H    -1.7493682    4.0067110   -1.0490356 
