15
Energy =
C    -3.8552699    2.0047580   -0.6328528 
C    -2.7426344    1.9670955    0.4458514 
H    -4.5607131    2.8354530   -0.4179713 
H    -4.4563949    1.0754467   -0.6912366 
H    -3.4404888    2.1859418   -1.6481538 
N    -2.7308162    0.6842243    1.1812836 
H    -1.8096957    0.1954212    1.0813130 
H    -3.4489759    0.0038449    0.8465164 
C    -1.3770779    2.3064598   -0.1466270 
H    -2.9639566    2.7681709    1.1911352 
N    -0.7170665    3.5252314    0.1789130 
N    -0.7185231    1.3997166   -1.0238236 
H     0.2246091    1.0692939   -0.7263120 
H    -1.2324203    1.0861015   -1.8747553 
H    -1.1441126    4.2303608    0.8162843 
