24
Energy =
C     0.8897795    1.9911837    0.8036954 
C    -0.4098536    2.3826086    0.7254907 
C    -1.1573056    2.0089484   -0.3373739 
C     1.4343113    1.2308660   -0.1799686 
C     0.6829423    0.8538119   -1.2517176 
C    -0.6189925    1.2482736   -1.3228940 
O    -1.0006947    3.1674365    1.7209640 
H    -0.3813558    3.3986155    2.4898227 
H     2.4748307    0.9242315   -0.1009881 
H    -1.2391277    0.9525910   -2.1652213 
H    -2.1937938    2.3236330   -0.3891065 
H     1.4952769    2.2841145    1.6540674 
C     1.2839762   -0.0076198   -2.3455065 
C     1.1767573   -1.5224313   -2.0600837 
H     2.3529456    0.2680962   -2.4910266 
H     0.7781269    0.2078818   -3.3127990 
C     1.9287492   -1.9403682   -0.8007832 
O     3.2610347   -1.5771304   -0.6367511 
O     1.3221824   -2.7377913    0.1627072 
H     1.9849242   -2.9161244    0.9063305 
N    -0.2430572   -1.9252697   -2.0596972 
H     1.6978732   -2.0552156   -2.8879084 
H    -0.2952688   -2.9688238   -1.9661816 
H    -0.6987115   -1.5641797   -1.1874311 
