24
Energy =
C     1.5817482    2.0249557    0.6591823 
C     0.3745021    2.6294053    0.5812923 
C    -0.5293784    2.2089606   -0.3435497 
C     1.8965132    1.0066936   -0.1808898 
C     0.9997096    0.5879171   -1.1149132 
C    -0.2199393    1.1900566   -1.1853820 
O     0.0880690    3.6760712    1.4632328 
H    -0.8371501    4.0748022    1.3464271 
H     2.8656723    0.5222115   -0.0958353 
H    -0.9546104    0.8578937   -1.9146067 
H    -1.5021426    2.6842595   -0.4095022 
H     2.2905939    2.3642550    1.4066267 
C     1.3383533   -0.5637057   -2.0367104 
C     0.9483809   -1.9185539   -1.4083188 
H     2.4247780   -0.5468098   -2.2750158 
H     0.8094022   -0.4286764   -3.0082914 
C     0.9181415   -3.0449743   -2.4419886 
O    -0.2615336   -3.7519800   -2.6328404 
O     2.0375213   -3.3905877   -3.1993038 
H     2.8302766   -2.8035528   -2.9931827 
N     1.8451172   -2.2096540   -0.2733195 
H    -0.0997982   -1.8411214   -1.0305732 
H     1.5093044   -3.0718691    0.2209514 
H     2.8123654   -2.4188760   -0.6159731 
