24
Energy =
C     0.0412117    1.8544221    0.6978410 
C    -0.1544773    2.7770290   -0.2701925 
C     0.3836783    2.5814184   -1.5034648 
C     0.7747403    0.7393511    0.4474001 
C     1.3216990    0.5413897   -0.7820526 
C     1.1154237    1.4670625   -1.7598032 
O    -0.9136471    3.9127253    0.0285747 
H    -1.0178146    4.5548545   -0.7493317 
H     0.9074226   -0.0064308    1.2282870 
H     1.5329091    1.3238904   -2.7532823 
H     0.2281061    3.3140208   -2.2878517 
H    -0.4043526    2.0205877    1.6726440 
C     2.1286311   -0.7083013   -1.0639362 
C     1.2219451   -1.9626047   -1.1557372 
H     2.8911044   -0.8459309   -0.2655382 
H     2.7138063   -0.5701222   -2.0024068 
C     1.8510485   -3.0939605   -1.9648177 
O     2.7606971   -2.8100528   -2.9686485 
O     1.4500539   -4.4102366   -1.8069025 
H     0.7724690   -4.4433225   -1.0620267 
N     0.8711375   -2.3725846    0.2136277 
H     0.2910861   -1.7022636   -1.7185845 
H     0.0519700   -3.0178106    0.1919125 
H     1.6897655   -2.8082789    0.7146093 
