24
Energy =
C     1.9402160    1.4928147    0.8835888 
C     1.5187343    2.6283763    0.2834393 
C     1.0364506    2.5782946   -0.9868968 
C     1.8875261    0.3070896    0.2264936 
C     1.4142580    0.2517723   -1.0490764 
C     0.9838436    1.3955531   -1.6503645 
O     1.5930985    3.8304892    0.9939556 
H     1.2280439    4.6305170    0.4881223 
H     2.2230089   -0.5961329    0.7287931 
H     0.5770940    1.3693894   -2.6583205 
H     0.6849394    3.4819339   -1.4730515 
H     2.3154920    1.5465548    1.8992751 
C     1.3408225   -1.0739180   -1.7766126 
C     0.0720818   -1.8740428   -1.4150933 
H     2.2452991   -1.6705464   -1.5259221 
H     1.3800216   -0.9209082   -2.8789677 
C    -1.1955574   -1.1705419   -1.9053060 
O    -1.6910668   -0.0848206   -1.2033007 
O    -1.8468586   -1.5541587   -3.0673745 
H    -1.5084561   -2.4813309   -3.2819096 
N     0.2169719   -3.2242165   -1.9848012 
H    -0.0393803   -1.9437594   -0.3054788 
H     0.9723099   -3.7501641   -1.4687552 
H    -0.6690291   -3.7439286   -1.7996502 
