24
Energy =
C     1.5258119    2.0882052    0.5904684 
C     0.3354293    2.7038989    0.4067888 
C    -0.5169496    2.2595844   -0.5453437 
C     1.8737402    1.0315765   -0.1875187 
C     1.0281025    0.5877113   -1.1585367 
C    -0.1762295    1.2026676   -1.3263588 
O    -0.0175055    3.7869359    1.2052734 
H     0.2689072    4.6588848    0.7741240 
H     2.8262671    0.5348184   -0.0219432 
H    -0.8734291    0.8492374   -2.0817093 
H    -1.4752411    2.7524187   -0.6687577 
H     2.1922976    2.4419281    1.3700206 
C     1.4022629   -0.6051866   -2.0113848 
C     0.9571764   -1.9280318   -1.3522344 
H     2.5007258   -0.6113581   -2.1865003 
H     0.9317462   -0.5042069   -3.0165241 
C     0.9647091   -3.0945797   -2.3407425 
O    -0.2135288   -3.7937123   -2.5662029 
O     2.1172640   -3.4844799   -3.0231843 
H     2.9066106   -2.8996690   -2.7985475 
N     1.7869733   -2.1857340   -0.1597667 
H    -0.1084724   -1.8208024   -1.0353807 
H     1.4068390   -3.0180856    0.3531916 
H     2.7660701   -2.4286858   -0.4408433 
