24
Energy =
C     1.0552773    2.5100419    0.0145419 
C    -0.2566562    2.7414553   -0.2209812 
C    -0.9722415    1.8750486   -0.9744881 
C     1.6596036    1.4138559   -0.5107141 
C     0.9473545    0.5416281   -1.2778409 
C    -0.3751925    0.7769233   -1.5035086 
O    -0.8720059    3.8655949    0.3206160 
H    -0.8168727    4.6483931   -0.3215914 
H     2.7130182    1.2387436   -0.3074153 
H    -0.9631706    0.0874375   -2.1044165 
H    -2.0262823    2.0660737   -1.1442312 
H     1.6143468    3.2061780    0.6309896 
C     1.6077190   -0.6917206   -1.8525094 
C     1.2580657   -1.9728918   -1.0570423 
H     2.7144478   -0.5705659   -1.8936953 
H     1.2797018   -0.8100538   -2.9101935 
C     1.7619869   -3.2088331   -1.7831673 
O     0.8710406   -4.1976232   -2.1869319 
O     3.1125432   -3.3393289   -2.0928608 
H     3.2569033   -4.2266449   -2.5574151 
N     1.8041167   -1.9065106    0.3100607 
H     0.1506844   -2.0849140   -1.0000306 
H     2.8390329   -1.7431386    0.2751869 
H     1.3647781   -1.1152963    0.8358030 
