24
Energy =
C     0.1082345    2.4705876   -0.8366924 
C     0.5122768    2.5896414    0.4487062 
C     1.2850708    1.6300338    1.0075472 
C     0.4714859    1.3859486   -1.5671547 
C     1.2519950    0.4161281   -1.0134741 
C     1.6538749    0.5435435    0.2826855 
O     0.1365463    3.7020338    1.1945616 
H    -0.7321844    3.5227493    1.6867318 
H     0.1252686    1.2901134   -2.5932032 
H     2.2604751   -0.2285722    0.7493734 
H     1.6007529    1.7385065    2.0393766 
H    -0.5114006    3.2465847   -1.2734988 
C     1.6356610   -0.8098068   -1.8184563 
C     0.5601949   -1.9099933   -1.7619231 
H     2.6038594   -1.2211553   -1.4538785 
H     1.8025290   -0.5229301   -2.8800292 
C     0.3464758   -2.4103449   -0.3357621 
O    -0.6165670   -1.8458451    0.4958703 
O     1.1764022   -3.4024224    0.1714898 
H     0.8977445   -3.6097357    1.1223631 
N    -0.6666138   -1.4138386   -2.4248623 
H     0.9541570   -2.7946072   -2.3157494 
H    -0.8167515   -1.9351272   -3.3201607 
H    -1.5162745   -1.5870484   -1.8343825 
