24
Energy =
C     2.5108028    1.7131962   -0.0325840 
C     1.5508163    2.6063004    0.3005288 
C     0.2998649    2.4723616   -0.1973001 
C     2.2266226    0.6909280   -0.8790125 
C     0.9735923    0.5590271   -1.3969888 
C     0.0082242    1.4505687   -1.0422628 
O     1.8458474    3.6561856    1.1652477 
H     2.1248370    4.4811123    0.6460109 
H     3.0040072   -0.0292102   -1.1250949 
H    -1.0038543    1.3344252   -1.4206725 
H    -0.4642083    3.1830701    0.0977909 
H     3.5043136    1.8172308    0.3904830 
C     0.6442474   -0.5941010   -2.3222021 
C    -0.0225232   -1.7776038   -1.5898212 
H     1.5701536   -0.9541282   -2.8268857 
H    -0.0220449   -0.2391407   -3.1387192 
C     0.8701324   -2.3409507   -0.4796589 
O     1.7431217   -3.3783287   -0.7819888 
O     0.8632208   -1.8267112    0.8157518 
H     0.2325215   -1.0411597    0.8812195 
N    -1.3577179   -1.3675033   -1.1113502 
H    -0.1327307   -2.6159920   -2.3196406 
H    -1.9889707   -1.2360972   -1.9371479 
H    -1.7808455   -2.1531506   -0.5583747 
