24
Energy =
C     0.0038813    2.4725619   -1.1307161 
C    -0.0235297    2.6835809    0.2049150 
C     0.5911294    1.8015712    1.0375597 
C     0.6402434    1.3887997   -1.6433783 
C     1.2623816    0.5063563   -0.8145774 
C     1.2295227    0.7165328    0.5304897 
O    -0.6913085    3.8105081    0.6942022 
H    -0.6628270    3.9018065    1.7039518 
H     0.6489150    1.2344968   -2.7196338 
H     1.7091671    0.0132225    1.2077153 
H     0.5711967    1.9604267    2.1103971 
H    -0.4919786    3.1831887   -1.7832046 
C     1.9549965   -0.7122872   -1.3832142 
C     0.9680609   -1.8663155   -1.6540884 
H     2.7497727   -1.0723286   -0.6896904 
H     2.4764562   -0.4289664   -2.3255386 
C     1.6301855   -2.9640528   -2.4713796 
O     2.9549350   -3.3272677   -2.2483427 
O     0.8956292   -3.6334931   -3.4419842 
H     1.4822630   -4.3394879   -3.8692151 
N     0.4571869   -2.3814244   -0.3695925 
H     0.1254838   -1.4974509   -2.2861690 
H    -0.2416634   -1.7036522    0.0153140 
H    -0.0779343   -3.2675957   -0.5407085 
