24
Energy =
C     1.8578847    1.4207612    0.9432471 
C     1.4409965    2.5709904    0.3664506 
C     1.0038581    2.5671687   -0.9136733 
C     1.8320651    0.2589541    0.2426650 
C     1.3942330    0.2464475   -1.0476854 
C     0.9773066    1.4097049   -1.6219366 
O     1.4671228    3.7593885    1.0888988 
H     0.5900910    3.8950410    1.5806076 
H     2.1596821   -0.6598664    0.7213764 
H     0.6022610    1.4191471   -2.6421846 
H     0.6700720    3.4964952   -1.3620489 
H     2.2093855    1.4380814    1.9691426 
C     1.3394350   -1.0537046   -1.8208446 
C     0.0764714   -1.8778301   -1.4953342 
H     2.2479371   -1.6498771   -1.5844246 
H     1.3824020   -0.8624105   -2.9170094 
C    -1.1992668   -1.1478356   -1.9222081 
O    -1.6856385   -0.1090071   -1.1462453 
O    -1.8685749   -1.4607724   -3.0949091 
H    -1.5306665   -2.3714674   -3.3717766 
N     0.2165894   -3.1885357   -2.1515619 
H    -0.0199457   -2.0181162   -0.3911389 
H     0.9816467   -3.7431344   -1.6818102 
H    -0.6650032   -3.7222849   -1.9864187 
