24
Energy =
C    -0.2957787    2.2474723   -1.6615486 
C     0.1148290    2.8370506   -0.5152151 
C     1.0358312    2.2284324    0.2666600 
C     0.2072038    1.0404811   -2.0257098 
C     1.1313609    0.4181885   -1.2409725 
C     1.5446993    1.0228264   -0.0918092 
O    -0.4050535    4.0733929   -0.1448663 
H    -1.2313392    3.9545357    0.4313484 
H    -0.1361385    0.5768783   -2.9465700 
H     2.2781703    0.5421288    0.5506099 
H     1.3601448    2.7138364    1.1804803 
H    -1.0284937    2.7499954   -2.2841537 
C     1.6818142   -0.9380170   -1.6334625 
C     0.9129138   -2.1228292   -0.9945646 
H     2.7549754   -1.0006241   -1.3412516 
H     1.6706747   -1.0466383   -2.7405592 
C     1.0290878   -2.1442425    0.5227780 
O     0.1339870   -1.4398715    1.3244178 
O     2.0923470   -2.8118543    1.1198973 
H     2.0139441   -2.7245982    2.1250095 
N    -0.4886207   -2.1577694   -1.4532415 
H     1.4081253   -3.0664625   -1.3195942 
H    -1.0161161   -1.3439339   -1.0540924 
H    -0.5292904   -2.0840242   -2.4963104 
