24
Energy =
C    -0.9571252    1.9989457   -1.0591470 
C    -0.3974607    2.7317268   -0.0700252 
C     0.8627253    2.4417217    0.3506392 
C    -0.2673673    0.9833773   -1.6376249 
C     0.9985042    0.6953988   -1.2267546 
C     1.5561169    1.4253565   -0.2219324 
O    -1.1382037    3.7744493    0.4961112 
H    -0.6576208    4.2648228    1.2427889 
H    -0.7405224    0.3955871   -2.4215848 
H     2.5591705    1.1993886    0.1319090 
H     1.3174147    3.0195018    1.1480871 
H    -1.9674908    2.2339106   -1.3757384 
C     1.7613685   -0.4546345   -1.8478499 
C     1.4864099   -1.7837515   -1.1161847 
H     2.8549875   -0.2457514   -1.8082742 
H     1.5164223   -0.5418996   -2.9287038 
C     0.0174144   -2.2147447   -1.1902478 
O    -0.7003247   -2.3778821   -0.0128953 
O    -0.6343593   -2.4303845   -2.4066369 
H    -0.0142440   -2.3302877   -3.1943019 
N     2.4139296   -2.8055555   -1.6346583 
H     1.7022069   -1.6309938   -0.0315855 
H     2.3154687   -3.6803603   -1.0644519 
H     2.1683696   -3.0613897   -2.6202898 
