24
Energy =
C    -0.3824535    2.2483655   -1.2496394 
C     0.0474527    2.7928843   -0.0799706 
C     1.0343629    2.1852109    0.6171442 
C     0.1760015    1.1020555   -1.7144448 
C     1.1720506    0.4915429   -1.0150695 
C     1.5965724    1.0389067    0.1570687 
O    -0.5073764    3.9719588    0.4278958 
H    -1.2384197    4.3681398   -0.1528536 
H    -0.1791358    0.6769450   -2.6501792 
H     2.3845321    0.5633196    0.7352242 
H     1.3673368    2.6283731    1.5495407 
H    -1.1742902    2.7277767   -1.8151685 
C     1.7820140   -0.7951194   -1.5270368 
C     0.8834168   -2.0270542   -1.2443583 
H     2.7914419   -0.9582510   -1.0873322 
H     1.9512908   -0.6904769   -2.6237416 
C     1.3924543   -3.2838479   -1.9602730 
O     2.1650194   -3.1601135   -3.1092216 
O     1.0208870   -4.5621481   -1.5492383 
H     0.4611291   -4.5194567   -0.7100561 
N     0.7548100   -2.2395633    0.2121568 
H    -0.1264169   -1.8503372   -1.6828110 
H     1.7013641   -2.2623844    0.6637977 
H     0.2193770   -1.4487997    0.6453952 
