24
Energy =
C     1.1222022    1.7853720    1.0064309 
C     0.8110731    2.8061939    0.1760372 
C     0.7787359    2.5945118   -1.1667247 
C     1.4039351    0.5550767    0.5084458 
C     1.3813063    0.3393000   -0.8357960 
C     1.0606476    1.3665072   -1.6706298 
O     0.5289074    4.0593317    0.7285567 
H     0.2915550    4.7684902    0.0428191 
H     1.6448925   -0.2548269    1.1919249 
H     1.0199979    1.2111069   -2.7470045 
H     0.5236557    3.4051595   -1.8410652 
H     1.1389349    1.9669214    2.0755159 
C     1.6739267   -1.0383775   -1.3916200 
C     0.4362071   -1.9550812   -1.3481497 
H     2.5011281   -1.5027237   -0.8118693 
H     2.0393067   -0.9735304   -2.4427545 
C    -0.6929760   -1.4222509   -2.2222116 
O    -0.4454436   -0.9563029   -3.5109520 
O    -1.9945937   -1.4118246   -1.7354332 
H    -2.6090089   -1.0444317   -2.4506174 
N     0.8482489   -3.3080355   -1.7591448 
H     0.0349060   -1.9876849   -0.3078951 
H     1.4412342   -3.7305749   -1.0069033 
H    -0.0015480   -3.9190301   -1.8310965 
