24
Energy =
C     2.3780426    1.9825259    0.0277189 
C     1.2595769    2.7068103    0.2953132 
C     0.0842548    2.3550989   -0.2719364 
C     2.3161783    0.9140836   -0.8071937 
C     1.1351538    0.5635908   -1.3888216 
C     0.0172159    1.2899396   -1.1117053 
O     1.2882215    3.8137976    1.1487567 
H     2.2002159    4.0092169    1.5472842 
H     3.2200658    0.3421477   -1.0034367 
H    -0.9424351    1.0048983   -1.5406878 
H    -0.8025760    2.9345405   -0.0353155 
H     3.3233050    2.2553372    0.4838111 
C     1.0650125   -0.6343741   -2.3161386 
C     0.3540954   -1.8407038   -1.6650746 
H     2.0928808   -0.9433205   -2.6131694 
H     0.5545842   -0.3573275   -3.2661322 
C    -1.1569183   -1.7060340   -1.7394736 
O    -1.8522100   -2.0850747   -2.8801700 
O    -1.8486183   -1.1026107   -0.6987281 
H    -2.8434557   -1.1784550   -0.8822446 
N     0.8366932   -3.0753254   -2.3107819 
H     0.5966638   -1.8778652   -0.5754526 
H     0.3780454   -3.8983675   -1.8508220 
H     0.5085742   -3.0927768   -3.3074451 
