24
Energy =
C     0.8622829    1.6122817    1.0246398 
C    -0.3387957    2.1814191    0.7755145 
C    -0.9270247    2.0057482   -0.4375097 
C     1.4834623    0.8717182    0.0722545 
C     0.9003917    0.6933935   -1.1454080 
C    -0.3110480    1.2648297   -1.3932249 
O    -0.9450767    2.9415937    1.7805804 
H    -1.8496528    3.3218533    1.5246373 
H     2.4450129    0.4157268    0.2959882 
H    -0.7955765    1.1279288   -2.3560104 
H    -1.8917818    2.4557723   -0.6445873 
H     1.3181665    1.7541807    1.9985490 
C     1.5860182   -0.1449778   -2.2059867 
C     1.2598920   -1.6557444   -2.1008549 
H     2.6890481   -0.0074303   -2.1304865 
H     1.3113234    0.2210110   -3.2194694 
C     1.7386990   -2.2605871   -0.7872393 
O     3.0612169   -2.6741354   -0.6638776 
O     0.9073556   -2.3221761    0.3265239 
H     1.4123251   -2.7553640    1.0872960 
N    -0.1690143   -1.9139658   -2.3542535 
H     1.8448687   -2.1829185   -2.8879814 
H    -0.7459399   -1.5431293   -1.5618107 
H    -0.4749036   -1.4377195   -3.2339154 
