24
Energy =
C     1.5533960    1.7426993    0.7914305 
C     0.3682960    2.3903272    0.8531910 
C    -0.5510599    2.2153872   -0.1228340 
C     1.8197784    0.9083203   -0.2437280 
C     0.8962534    0.7200674   -1.2278646 
C    -0.2912926    1.3841598   -1.1627797 
O     0.0982804    3.2426988    1.9176341 
H    -0.3399271    2.7341229    2.6775621 
H     2.7749777    0.3922474   -0.2796523 
H    -1.0475841    1.2384269   -1.9292348 
H    -1.4964330    2.7421655   -0.0607014 
H     2.2853668    1.8986618    1.5759049 
C     1.1907645   -0.2205796   -2.3775955 
C     1.1158609   -1.7237235   -1.9785474 
H     2.2107395    0.0234475   -2.7500424 
H     0.4996110   -0.0352180   -3.2305358 
C    -0.3226208   -2.1541632   -1.6238292 
O    -0.9950974   -1.4416650   -0.6478549 
O    -0.9890392   -3.2537426   -2.1399174 
H    -0.3539454   -3.8217487   -2.6568018 
N     1.8438398   -2.5324856   -2.9914943 
H     1.6516122   -1.8619148   -1.0115806 
H     1.3507628   -3.3476419   -3.3873744 
H     2.1872496   -1.9750945   -3.8142314 
