24
Energy =
C    -0.1406614    1.5633972    1.0445327 
C    -0.6159204    2.5005506    0.1937960 
C    -0.1961091    2.5224620   -1.0918177 
C     0.7653598    0.6487955    0.6144231 
C     1.1947546    0.6623029   -0.6798244 
C     0.7088512    1.6104360   -1.5303780 
O    -1.5389568    3.4409433    0.6407349 
H    -1.0676709    4.2725144    0.9782168 
H     1.1379999   -0.0977955    1.3118320 
H     1.0378831    1.6465564   -2.5649968 
H    -0.5943502    3.2737956   -1.7648657 
H    -0.4949148    1.5484832    2.0697411 
C     2.2104875   -0.3575622   -1.1630377 
C     1.6030888   -1.7523288   -1.4748036 
H     3.0006127   -0.4728866   -0.3858187 
H     2.7363348    0.0176734   -2.0683731 
C     0.9895709   -2.3993311   -0.2444831 
O     1.8255495   -2.9470902    0.7230963 
O    -0.3820210   -2.3876383   -0.0200424 
H    -0.5797914   -2.8683576    0.8462837 
N     0.6497031   -1.7028996   -2.6042289 
H     2.4509079   -2.4275859   -1.7385962 
H     0.5397786   -0.7430892   -3.0009828 
H     0.9765677   -2.3243106   -3.3800834 
