24
Energy =
C    -0.8959517    2.0312376   -0.8230091 
C    -0.1795496    2.7517304    0.0803762 
C     1.1144899    2.4345802    0.3125645 
C    -0.3141252    1.0036700   -1.4924389 
C     0.9910730    0.6886504   -1.2643871 
C     1.7002781    1.4055599   -0.3502698 
O    -0.7471589    3.8196480    0.7835319 
H    -1.7262484    3.9834082    0.5763320 
H    -0.9038456    0.4260318   -2.2018516 
H     2.7383242    1.1596703   -0.1405080 
H     1.6743828    3.0117092    1.0407385 
H    -1.9367843    2.2731000   -1.0060352 
C     1.6342185   -0.4770603   -1.9841518 
C     1.4150367   -1.8045334   -1.2307513 
H     2.7298228   -0.3007226   -2.0831952 
H     1.2507992   -0.5466470   -3.0252156 
C    -0.0632780   -2.1954539   -1.1265987 
O    -0.6381188   -2.3430943    0.1286042 
O    -0.8643305   -2.3838724   -2.2552529 
H    -0.3412282   -2.2998814   -3.1121931 
N     2.2436153   -2.8463271   -1.8641868 
H     1.7664208   -1.6664123   -0.1800940 
H     2.1930808   -3.7221725   -1.2893576 
H     1.8714574   -3.0887135   -2.8127762 
