24
Energy =
C     1.9428405    2.4100213    0.2999422 
C     0.9278726    2.2661971    1.1794324 
C    -0.0052736    1.3094605    0.9824775 
C     2.0337968    1.5891718   -0.7765721 
C     1.1097627    0.6050947   -0.9806156 
C     0.0768580    0.4827842   -0.0913312 
O     0.8366667    3.1114407    2.2804371 
H     1.3301050    2.7194801    3.0749949 
H     2.8555109    1.7300483   -1.4751488 
H    -0.6967411   -0.2650119   -0.2059760 
H    -0.8231606    1.2161394    1.6895712 
H     2.6773269    3.1924056    0.4610840 
C     1.2457286   -0.2613359   -2.2292716 
C     0.5946933   -1.6640635   -2.1793112 
H     2.3335596   -0.4242061   -2.4076268 
H     0.8835562    0.3013041   -3.1154870 
C    -0.9234216   -1.6446165   -2.3522835 
O    -1.7151484   -2.4177683   -1.5164073 
O    -1.5333557   -0.9096073   -3.3631782 
H    -1.4508188    0.0769420   -3.1726700 
N     1.2378206   -2.5039510   -3.2048754 
H     0.7992834   -2.1126042   -1.1783749 
H     0.9345032   -3.4980763   -3.0639249 
H     0.8885427   -2.2280836   -4.1556449 
