24
Energy =
C     0.9973113    1.8078308    1.0792825 
C     0.2656046    2.7022030    0.3759600 
C     0.0692549    2.5227546   -0.9508343 
C     1.5315410    0.7255149    0.4578208 
C     1.3390295    0.5382874   -0.8778154 
C     0.5993553    1.4420988   -1.5789254 
O    -0.2793701    3.8100365    1.0165674 
H    -1.2133765    3.6060865    1.3546570 
H     2.1103697    0.0071139    1.0337334 
H     0.4320616    1.3072291   -2.6449793 
H    -0.5119283    3.2533606   -1.5032997 
H     1.1526455    1.9671063    2.1413332 
C     1.9169306   -0.6746633   -1.5731385 
C     0.8886846   -1.8189055   -1.6895992 
H     2.8188771   -1.0402549   -1.0319166 
H     2.2684315   -0.3749305   -2.5874811 
C     1.3896500   -2.8836121   -2.6627833 
O     0.8674254   -2.9206628   -3.9493361 
O     2.3870839   -3.7926954   -2.3127097 
H     2.6758195   -3.6641375   -1.3532455 
N     0.6223794   -2.3748728   -0.3482846 
H    -0.0561448   -1.4258349   -2.1364316 
H     0.0376182   -1.6948508    0.1921692 
H     0.0302295   -3.2370835   -0.4381175 
