24
Energy =
C     1.7103985    2.1827357    0.1211675 
C     0.4686787    2.7181112    0.1278530 
C    -0.5257052    2.1176091   -0.5781764 
C     1.9704200    1.0555817   -0.5888674 
C     0.9809296    0.4546342   -1.3069422 
C    -0.2707378    0.9906110   -1.2907764 
O     0.2420713    3.8837427    0.8662852 
H    -0.7200352    4.2038438    0.8490569 
H     2.9726023    0.6348187   -0.5675460 
H    -1.0762788    0.5052902   -1.8351905 
H    -1.5275292    2.5332289   -0.5686241 
H     2.4921234    2.6655420    0.6976756 
C     1.2646810   -0.8125868   -2.0932012 
C     0.6289942   -2.0651789   -1.4571630 
H     2.3626672   -0.9764515   -2.1784782 
H     0.8885534   -0.6922925   -3.1321474 
C     1.0164105   -2.2007156    0.0122906 
O     0.1379095   -1.8473829    1.0318650 
O     2.2898288   -2.6476747    0.3420368 
H     2.3748708   -2.6648746    1.3504617 
N    -0.8300730   -2.0340026   -1.6877497 
H     1.0642371   -2.9680614   -1.9469151 
H    -1.0307346   -2.3668617   -2.6603166 
H    -1.3021721   -2.7155572   -1.0437803 
