24
Energy =
C     1.5207454    2.2011339    0.4814531 
C     0.2818125    2.7239563    0.3384357 
C    -0.5818812    2.1715531   -0.5547365 
C     1.9058888    1.1310648   -0.2593734 
C     1.0464591    0.5767351   -1.1578649 
C    -0.2020065    1.1018010   -1.2984318 
O    -0.0771995    3.8253033    1.1215362 
H    -1.0197517    4.1614396    0.9551874 
H     2.9044483    0.7233329   -0.1279431 
H    -0.9037173    0.6682236   -2.0070106 
H    -1.5782876    2.5828943   -0.6755336 
H     2.1988517    2.6515820    1.1982864 
C     1.4605194   -0.6279214   -1.9740112 
C     0.8791599   -1.9434686   -1.4008105 
H     2.5694903   -0.6958507   -2.0418380 
H     1.1035985   -0.4871083   -3.0209913 
C     1.0944807   -3.1134035   -2.3597632 
O     0.0152700   -3.5899067   -3.0947539 
O     2.3541518   -3.6716541   -2.5818969 
H     3.0536014   -3.2579540   -1.9866521 
N     1.4278424   -2.2214002   -0.0591032 
H    -0.2297497   -1.8449289   -1.3223305 
H     2.4583361   -2.0392813   -0.0283550 
H     0.9853581   -1.5750499    0.6368609 
