24
Energy =
C     0.7698417    2.3769030    0.1771745 
C    -0.5759618    2.4493837    0.0606607 
C    -1.2422939    1.5299838   -0.6750472 
C     1.4564340    1.3899530   -0.4529734 
C     0.7945185    0.4693919   -1.2075907 
C    -0.5626564    0.5392774   -1.3070404 
O    -1.2763735    3.4631110    0.7068341 
H    -1.3862672    4.2665328    0.0981611 
H     2.5362583    1.3336394   -0.3400040 
H    -1.1109997   -0.1986285   -1.8872477 
H    -2.3228484    1.5908793   -0.7449880 
H     1.2909646    3.1089109    0.7850397 
C     1.5531979   -0.6461040   -1.8921094 
C     1.6652799   -1.8893416   -0.9889991 
H     2.5714257   -0.3009272   -2.1810620 
H     1.0398283   -0.9148701   -2.8434609 
C     2.1500048   -3.0915101   -1.7836365 
O     3.5008996   -3.2627898   -2.0642251 
O     1.2302797   -4.0005272   -2.2872408 
H     1.7282566   -4.7194666   -2.7974811 
N     2.5362614   -1.5806153    0.1615061 
H     0.6481777   -2.1633702   -0.6212333 
H     2.5669982   -2.4105156    0.8010023 
H     3.5199286   -1.4426447   -0.1755811 
