24
Energy =
C     0.8829890    2.5137096   -0.7648547 
C     1.7538696    2.4617213    0.2680917 
C     2.3880257    1.3034694    0.5617960 
C     0.6406758    1.4041650   -1.5081487 
C     1.2763025    0.2335068   -1.2203929 
C     2.1485093    0.1885486   -0.1748872 
O     2.0005088    3.6014994    1.0261057 
H     1.3676694    3.6461692    1.8178097 
H    -0.0855142    1.4506010   -2.3166282 
H     2.6583125   -0.7372285    0.0790442 
H     3.0867490    1.2788869    1.3909935 
H     0.3764806    3.4475083   -0.9844402 
C     0.9961279   -1.0148853   -2.0301742 
C    -0.1872345   -1.8286765   -1.4623515 
H     1.9124457   -1.6456548   -2.0498809 
H     0.7972835   -0.7578458   -3.0953924 
C    -1.5195878   -1.1203590   -1.7027693 
O    -1.8746406   -0.0415869   -0.9134740 
O    -2.3690513   -1.4834522   -2.7329935 
H    -2.0845303   -2.4142337   -3.0037352 
N    -0.1498285   -3.1667546   -2.0780177 
H    -0.1061538   -1.9175137   -0.3502986 
H     0.6944480   -3.6978799   -1.7327369 
H    -0.9806820   -3.6962390   -1.7337428 
