24
Energy =
C     0.8260200    1.2944975    1.2912684 
C     0.3994960    2.4614162    0.7562040 
C     0.4258704    2.6411412   -0.5843341 
C     1.2727598    0.2983749    0.4852743 
C     1.2959964    0.4677556   -0.8672137 
C     0.8723407    1.6499204   -1.3966103 
O    -0.0571707    3.4801928    1.5861579 
H    -1.0550964    3.3920562    1.7456023 
H     1.6127919   -0.6340081    0.9284114 
H     0.8806957    1.8086380   -2.4723634 
H     0.0869514    3.5837898   -1.0006204 
H     0.8098750    1.1665141    2.3684337 
C     1.7885312   -0.6499869   -1.7647231 
C     0.7629685   -1.8065039   -1.8835167 
H     2.7445849   -1.0342752   -1.3463218 
H     2.0349295   -0.2660376   -2.7808870 
C    -0.4648133   -1.4581848   -2.7370386 
O    -0.6269709   -0.1854199   -3.2721097 
O    -1.4576723   -2.4055396   -2.9743387 
H    -1.1570470   -3.3134567   -2.6494242 
N     1.4434518   -3.0100155   -2.3965903 
H     0.3533138   -2.0393294   -0.8736908 
H     1.9022095   -2.7992527   -3.3171374 
H     2.1973444   -3.3115101   -1.7332602 
