24
Energy =
C     0.9469021    1.8777484    0.9691019 
C     0.5442004    2.8676222    0.1398809 
C     0.5774958    2.6838921   -1.2003262 
C     1.3811331    0.6966880    0.4592884 
C     1.4219594    0.5051708   -0.8881972 
C     1.0093533    1.5048385   -1.7169594 
O     0.1003340    4.0764005    0.6659618 
H    -0.9030259    4.0564332    0.8118721 
H     1.6874826   -0.1010685    1.1314357 
H     1.0240615    1.3686947   -2.7954199 
H     0.2572342    3.4890544   -1.8527944 
H     0.9168912    2.0387937    2.0416863 
C     1.8857223   -0.8187666   -1.4558604 
C     0.7496647   -1.8637973   -1.4419292 
H     2.7578078   -1.1881925   -0.8724352 
H     2.2544371   -0.6713811   -2.4973096 
C     1.0293978   -3.0328794   -2.3872288 
O     0.1166895   -3.3163247   -3.3945951 
O     2.1695004   -3.8280056   -2.2708162 
H     2.7616814   -3.5287814   -1.5121530 
N     0.5030003   -2.2976929   -0.0520428 
H    -0.1746718   -1.3836789   -1.8474546 
H    -0.3503453   -2.9083510   -0.0271608 
H     1.2972625   -2.8890990    0.2898884 
