24
Energy =
C     0.6171703    1.9547036    0.9555188 
C     0.3758003    2.8721782   -0.0084046 
C     0.6383229    2.5791465   -1.3028256 
C     1.1333732    0.7423063    0.6290745 
C     1.4092503    0.4421407   -0.6715179 
C     1.1539237    1.3688448   -1.6372908 
O    -0.1506687    4.1144177    0.3310189 
H     0.5920464    4.7830644    0.5015179 
H     1.3166024    0.0120343    1.4144981 
H     1.3508301    1.1422102   -2.6823439 
H     0.4246319    3.3187008   -2.0667338 
H     0.3873439    2.1961224    1.9880220 
C     1.9731897   -0.9149254   -1.0446889 
C     0.8853926   -1.9885774   -1.2697896 
H     2.6733599   -1.2584147   -0.2495566 
H     2.5827975   -0.8281627   -1.9711583 
C     0.0831657   -2.2852040   -0.0092348 
O     0.7421388   -2.5384886    1.1886225 
O    -1.3028228   -2.3733535   -0.0516510 
H    -1.6477658   -2.5938409    0.8741742 
N     0.0454434   -1.6069636   -2.4214540 
H     1.4026112   -2.9474823   -1.5033754 
H    -0.6166257   -2.3953339   -2.6232220 
H    -0.5815724   -0.8174631   -2.1328772 
