24
Energy =
C     0.3144232    2.6405317   -0.7486106 
C     0.8693181    2.8528623    0.4647146 
C     1.6486760    1.8895477    1.0229081 
C     0.5207530    1.4710078   -1.4039904 
C     1.2696322    0.4834444   -0.8364608 
C     1.8587899    0.7174903    0.3710712 
O     0.6333998    4.0726098    1.1090211 
H     1.0749738    4.1543427    2.0183894 
H     0.0896518    1.3384559   -2.3925381 
H     2.5178952   -0.0190824    0.8215527 
H     2.1147818    2.0601537    1.9871578 
H    -0.2901240    3.4233014   -1.1932009 
C     1.5302696   -0.8136142   -1.5901185 
C     0.3126843   -1.7720564   -1.7607086 
H     2.3818264   -1.3725489   -1.1420225 
H     1.8802165   -0.5319920   -2.6094878 
C    -0.1389753   -2.6075237   -0.5502440 
O    -1.1308518   -3.5568023   -0.7585167 
O     0.4073488   -2.5138269    0.7277199 
H     1.0722829   -1.7731665    0.8080886 
N    -0.8089293   -1.0528388   -2.3910666 
H     0.6547003   -2.5599260   -2.4737760 
H    -1.4835761   -1.7508888   -2.7904667 
H    -1.3483227   -0.5441804   -1.6491624 
