24
Energy =
C     0.7552513    2.3556182    0.5558649 
C    -0.4891321    2.6280554    0.0780561 
C    -0.9453958    1.9684993   -1.0111327 
C     1.5357675    1.4315919   -0.0592186 
C     1.0803128    0.7750784   -1.1613137 
C    -0.1686488    1.0452162   -1.6307411 
O    -1.3167729    3.5798667    0.6847832 
H    -0.9165313    4.0096355    1.5116588 
H     2.5237763    1.2196872    0.3407486 
H    -0.5585003    0.5112524   -2.4936551 
H    -1.9435729    2.1831366   -1.3766075 
H     1.1274111    2.8741913    1.4326013 
C     1.9348441   -0.2785197   -1.8364172 
C     1.5755270   -1.7460646   -1.4595935 
H     3.0088919   -0.0976528   -1.6074807 
H     1.8668189   -0.1362873   -2.9395782 
C     0.4509330   -1.8944145   -0.4205426 
O    -0.8566134   -2.1142978   -0.8397604 
O     0.7041059   -1.7728822    0.9457028 
H     1.6655113   -1.5305237    1.1292270 
N     1.3010299   -2.4924082   -2.7012287 
H     2.4747116   -2.2023112   -0.9850219 
H     1.1804508   -3.5088147   -2.4733703 
H     0.3801665   -2.1807304   -3.0969024 
