24
Energy =
C     0.7337288    1.3943889    1.2072826 
C    -0.5166250    1.9088962    1.2190734 
C    -1.2617966    1.9027170    0.0872335 
C     1.2486766    0.8799710    0.0620859 
C     0.5097552    0.8726304   -1.0848776 
C    -0.7525664    1.3918701   -1.0604921 
O    -1.0305695    2.4461045    2.3970527 
H    -0.8090943    3.4324030    2.4576087 
H     2.2543098    0.4705574    0.0737016 
H    -1.3652832    1.4088334   -1.9578426 
H    -2.2667839    2.3122047    0.0981414 
H     1.3213374    1.3909437    2.1198215 
C     1.0832872    0.3103376   -2.3782655 
C     1.2750353   -1.2246891   -2.3641018 
H     2.0451983    0.8198520   -2.6049518 
H     0.4038627    0.5526728   -3.2253681 
C     2.4498444   -1.6548954   -1.5055193 
O     3.6021240   -0.8889848   -1.4796275 
O     2.4540452   -2.8574241   -0.8327437 
H     1.6034503   -3.3299741   -1.1259358 
N    -0.0078573   -1.8810235   -2.0364488 
H     1.5831598   -1.5409194   -3.3859183 
H     0.0397810   -2.8906409   -2.2959824 
H    -0.2879660   -1.7360988   -1.0276157 
