24
Energy =
C     1.0736752    1.6811948    1.0824214 
C     0.7017019    2.7155903    0.2938034 
C     0.6628179    2.5629952   -1.0500126 
C     1.4029320    0.4865196    0.5291245 
C     1.3692734    0.3257086   -0.8234011 
C     0.9910376    1.3714231   -1.6107551 
O     0.3650372    3.9383870    0.8652045 
H    -0.6274267    3.9751008    1.0719889 
H     1.6903878   -0.3396619    1.1740772 
H     0.9408835    1.2589243   -2.6917140 
H     0.3648014    3.4013370   -1.6705907 
H     1.1042098    1.8178996    2.1581969 
C     1.7043199   -1.0146626   -1.4414940 
C     0.4844522   -1.9647155   -1.4420621 
H     2.5418447   -1.4810203   -0.8775200 
H     2.0709975   -0.8789079   -2.4848568 
C    -0.6752354   -1.4007727   -2.2508882 
O    -0.5343174   -1.1576010   -3.6149356 
O    -1.8663260   -1.0611439   -1.6191001 
H    -2.5167807   -0.7166342   -2.3127502 
N     0.8900707   -3.2924240   -1.9360735 
H     0.0988853   -2.0749990   -0.4021905 
H     1.2521206   -3.2136088   -2.9176238 
H     1.6593658   -3.6791720   -1.3405999 
