24
Energy =
C     0.8693287    1.6297954    1.0779291 
C    -0.3177981    2.2141250    0.7973718 
C    -0.8756906    2.0601648   -0.4251511 
C     1.5106075    0.8994605    0.1303053 
C     0.9598707    0.7460783   -1.1065606 
C    -0.2417625    1.3293212   -1.3770171 
O    -0.9692000    2.9680994    1.7684338 
H    -0.7173752    3.9472017    1.6923678 
H     2.4607500    0.4294284    0.3730228 
H    -0.7036218    1.2081870   -2.3526097 
H    -1.8358455    2.5208263   -0.6291328 
H     1.2980851    1.7449909    2.0679621 
C     1.6695352   -0.0768701   -2.1633101 
C     1.3381503   -1.5893492   -2.0931707 
H     2.7705369    0.0571777   -2.0577840 
H     1.4212937    0.3074625   -3.1769615 
C     1.8014526   -2.2296560   -0.7921754 
O     0.9763665   -2.2727820    0.3284250 
O     3.1016698   -2.7122259   -0.6930103 
H     3.2368858   -3.0979773    0.2326739 
N    -0.0892896   -1.8364048   -2.3704426 
H     1.9369583   -2.1070348   -2.8768561 
H    -0.6761194   -1.4787551   -1.5788687 
H    -0.3829318   -1.3410305   -3.2439505 
