24
Energy =
C    -0.1719698    2.2885340   -1.4564692 
C     0.0454404    2.8039596   -0.2251170 
C     0.8544884    2.1444188    0.6463659 
C     0.4119943    1.1205656   -1.8267315 
C     1.2280609    0.4600789   -0.9603622 
C     1.4416331    0.9765618    0.2814909 
O    -0.5757647    4.0085810    0.1190695 
H    -0.3613721    4.3309497    1.0565628 
H     0.2213930    0.7205900   -2.8196689 
H     2.0781238    0.4538275    0.9921662 
H     1.0312703    2.5477110    1.6376946 
H    -0.8215392    2.8237906   -2.1406761 
C     1.8643681   -0.8512618   -1.3648831 
C     0.9120730   -2.0475972   -1.1622880 
H     2.7963125   -1.0359827   -0.7832518 
H     2.1809795   -0.7926585   -2.4307234 
C     1.4583811   -3.3038086   -1.8293246 
O     0.6015377   -4.3619567   -2.1087616 
O     2.8035702   -3.4147630   -2.1666333 
H     2.9640776   -4.3308321   -2.5659256 
N     0.6964041   -2.2516989    0.2827995 
H    -0.0591866   -1.8419498   -1.6709144 
H     0.0423759   -1.5146964    0.6369373 
H     0.1952903   -3.1617631    0.4323226 
