24
Energy =
C    -0.3648283    2.3211375   -0.6199744 
C     0.3315124    2.6752667    0.4838984 
C     1.4343812    1.9638648    0.8398625 
C     0.0300829    1.2628819   -1.3723864 
C     1.1355764    0.5498281   -1.0228180 
C     1.8338971    0.9046682    0.0909718 
O    -0.1081227    3.7705940    1.2336754 
H     0.4679366    3.9766724    2.0426526 
H    -0.5434479    0.9915124   -2.2553194 
H     2.7156783    0.3436638    0.3890745 
H     1.9984004    2.2400446    1.7242985 
H    -1.2432148    2.8965705   -0.8919283 
C     1.5636047   -0.6415160   -1.8508864 
C     0.7103424   -1.8966729   -1.5442930 
H     2.6429730   -0.8630129   -1.6927632 
H     1.4665547   -0.3781364   -2.9300307 
C     0.9769180   -3.0132507   -2.5519290 
O     0.0212894   -3.2858913   -3.5236440 
O     2.1790221   -3.7216325   -2.5777754 
H     2.7870505   -3.4487292   -1.8223700 
N     0.9176827   -2.3475678   -0.1541904 
H    -0.3680438   -1.6456467   -1.6852485 
H     1.9336221   -2.3321175    0.0980484 
H     0.4330653   -1.6886579    0.5008694 
