24
Energy =
C     1.0989230    2.9795545   -0.2475322 
C    -0.0708717    2.7969851    0.4158331 
C    -0.6812635    1.5937780    0.3711779 
C     1.6511353    1.9586748   -0.9500798 
C     1.0464062    0.7360161   -0.9979697 
C    -0.1360285    0.5686227   -0.3299589 
O    -0.6674416    3.8279453    1.1478156 
H    -0.1486764    4.6992933    1.1410338 
H     2.5878944    2.1282951   -1.4763127 
H    -0.6697537   -0.3688770   -0.3284156 
H    -1.6158071    1.4580313    0.9053594 
H     1.5947379    3.9437423   -0.2179474 
C     1.7319526   -0.3516131   -1.8262416 
C     1.2126038   -1.8095540   -1.7621495 
H     2.8022544   -0.3766062   -1.5186127 
H     1.7178209   -0.0319532   -2.8917489 
C     1.0499796   -2.3439103   -0.3457573 
O    -0.1556301   -2.8916040    0.0813771 
O     2.1274342   -2.3144115    0.5296097 
H     1.8425935   -2.7159510    1.4140432 
N     0.0226353   -1.9654249   -2.6218190 
H     2.0179005   -2.4499252   -2.1901626 
H    -0.2724726   -2.9720989   -2.6168536 
H    -0.7884989   -1.4342126   -2.2348590 
