24
Energy =
C     1.2136833    2.4815773    0.1270574 
C    -0.0517030    2.8172462   -0.2141123 
C    -0.7623042    2.0211701   -1.0458892 
C     1.7715905    1.3429880   -0.3577283 
C     1.0614910    0.5356894   -1.1946871 
C    -0.2116903    0.8808902   -1.5346048 
O    -0.6194697    3.9852668    0.2850811 
H    -1.1093311    3.8026388    1.1539749 
H     2.7877779    1.0844791   -0.0705211 
H    -0.7956356    0.2497075   -2.2000145 
H    -1.7723625    2.3074104   -1.3181953 
H     1.7756031    3.1329069    0.7883028 
C     1.6702239   -0.7416672   -1.7289510 
C     1.1579720   -1.9956165   -0.9794352 
H     2.7824059   -0.7071331   -1.6761877 
H     1.4269962   -0.8262032   -2.8125159 
C     1.5839731   -3.2640997   -1.6996640 
O     0.6311920   -4.1891856   -2.1125869 
O     2.9248610   -3.4884515   -1.9954378 
H     3.0116101   -4.3871239   -2.4522423 
N     1.6287289   -1.9972433    0.4173897 
H     0.0434157   -2.0070800   -0.9871149 
H     2.6756866   -1.9450558    0.4425896 
H     1.2478316   -1.1675367    0.9288581 
