24
Energy =
C     1.3631131    1.9750250    0.7817242 
C     1.0283096    2.9311518   -0.1147820 
C     0.8992853    2.6160988   -1.4241500 
C     1.5639355    0.6963867    0.3721097 
C     1.4375356    0.3720865   -0.9447892 
C     1.0987880    1.3401075   -1.8413799 
O     0.8217929    4.2397603    0.3102584 
H    -0.1511913    4.3847167    0.5568408 
H     1.8256492   -0.0637027    1.1035096 
H     0.9798649    1.0990465   -2.8956161 
H     0.6341491    3.3930215   -2.1328652 
H     1.4686888    2.2431912    1.8275137 
C     1.6329562   -1.0576477   -1.4001836 
C     0.3463527   -1.9002964   -1.2193665 
H     2.4648347   -1.5150066   -0.8202862 
H     1.9453485   -1.0850011   -2.4700913 
C    -0.8125040   -1.3541082   -2.0390021 
O    -0.6754129   -1.1226887   -3.4058447 
O    -2.0208016   -1.0575539   -1.4171750 
H    -2.6736268   -0.7255454   -2.1147719 
N     0.6021905   -3.3169356   -1.5601019 
H     0.0138445   -1.8197384   -0.1568942 
H     1.6013026   -3.5048666   -1.8121189 
H     0.3683203   -3.9286624   -0.7428418 
