24
Energy =
C     0.0225383    2.4525669   -1.8272548 
C    -0.1621710    2.8940202   -0.5623471 
C     0.3345750    2.1742794    0.4794776 
C     0.6987748    1.3002728   -2.0614923 
C     1.2023372    0.5783101   -1.0226427 
C     1.0141798    1.0227236    0.2505664 
O    -0.8642333    4.0882843   -0.3631341 
H    -0.9825233    4.3399509    0.6127023 
H     0.8273239    0.9544850   -3.0840288 
H     1.3970306    0.4549901    1.0955608 
H     0.1865933    2.5153461    1.4983201 
H    -0.3826806    3.0317475   -2.6494536 
C     1.9409462   -0.7201667   -1.2777975 
C     1.0188884   -1.9576192   -1.2414016 
H     2.7574172   -0.8361952   -0.5308656 
H     2.4424128   -0.6813325   -2.2713307 
C     0.2923165   -2.1190034    0.1010105 
O    -1.0685742   -1.8524462    0.1981198 
O     0.9788788   -2.5118678    1.2501923 
H     1.9592885   -2.6645020    1.0703961 
N     0.1103674   -1.9147693   -2.4020982 
H     1.6651356   -2.8595340   -1.3432860 
H    -0.4007807   -2.8277735   -2.4654540 
H    -0.6359556   -1.1968354   -2.2319828 
