24
Energy =
C     0.3391865    2.0364776    0.5713094 
C    -0.1373258    2.7959469   -0.4400465 
C     0.0929464    2.4228865   -1.7267536 
C     1.0513492    0.9103898    0.3098075 
C     1.2868313    0.5315109   -0.9768595 
C     0.7991558    1.2952590   -1.9941797 
O    -0.8589671    3.9523189   -0.1290617 
H    -1.1968260    4.4596922   -0.9397994 
H     1.4103886    0.3012547    1.1375581 
H     0.9682523    1.0088389   -3.0289448 
H    -0.2891588    3.0242955   -2.5446975 
H     0.1336655    2.3409699    1.5923516 
C     2.0692397   -0.7333345   -1.2775995 
C     1.2439288   -2.0355951   -1.1061390 
H     2.9706661   -0.7731732   -0.6251243 
H     2.4634582   -0.6988563   -2.3178097 
C     0.9835755   -2.3640239    0.3677648 
O    -0.0859013   -1.7764189    1.0346349 
O     1.8799102   -3.1324362    1.1108240 
H     2.6186419   -3.5175206    0.5424883 
N     0.0022556   -1.9875606   -1.8979784 
H     1.8548552   -2.8743238   -1.5068112 
H    -0.6719333   -1.3093865   -1.4657690 
H     0.2044594   -1.6607898   -2.8708449 
