24
Energy =
C     0.9090458    2.2946412    0.3904759 
C    -0.2921108    2.6861416   -0.0931394 
C    -0.8478997    2.0300496   -1.1377804 
C     1.5573225    1.2402529   -0.1666092 
C     1.0066928    0.5773111   -1.2213920 
C    -0.2055506    0.9747505   -1.7003015 
O    -0.9539538    3.7669828    0.4807986 
H    -1.5816535    3.4537677    1.2130592 
H     2.5149214    0.9257926    0.2410328 
H    -0.6668313    0.4520724   -2.5344268 
H    -1.8086708    2.3591306   -1.5183238 
H     1.3454530    2.8298616    1.2271713 
C     1.7158006   -0.6118078   -1.8312293 
C     1.2917157   -1.9292147   -1.1544099 
H     2.8192282   -0.4883229   -1.7475778 
H     1.4953761   -0.6566197   -2.9219894 
C     1.7737797   -3.1267804   -1.9555870 
O     3.1231024   -3.4606051   -1.9905686 
O     0.8689831   -3.8668012   -2.7040119 
H     1.3665799   -4.6128267   -3.1741495 
N     1.7859746   -1.9445606    0.2356664 
H     0.1778845   -1.9964933   -1.1538890 
H     1.4215416   -2.8006004    0.7180924 
H     2.8313466   -2.0369857    0.2329118 
