24
Energy =
C     0.1616425    1.9637847    0.7830484 
C     0.0018910    2.8398204   -0.2352284 
C     0.5000337    2.5526539   -1.4601890 
C     0.8166931    0.7926182    0.5780176 
C     1.3225065    0.4970009   -0.6521635 
C     1.1553308    1.3828483   -1.6733138 
O    -0.6698110    4.0389096   -0.0206268 
H    -1.6594324    3.9359325   -0.2161040 
H     0.9294496    0.0902173    1.4010634 
H     1.5475864    1.1625330   -2.6631873 
H     0.3717624    3.2689859   -2.2645540 
H    -0.2377230    2.2086207    1.7618009 
C     2.0385566   -0.8143992   -0.8912720 
C     1.0934786   -1.9022963   -1.4422771 
H     2.5028471   -1.1833727    0.0522563 
H     2.8802673   -0.6474375   -1.6010426 
C     1.8828251   -3.1263208   -1.9198048 
O     3.1319872   -3.4113994   -1.3779337 
O     1.3584005   -3.9913254   -2.8815958 
H     0.4364206   -3.7122195   -3.1824246 
N     0.1153433   -2.2598541   -0.3985477 
H     0.5643019   -1.4961708   -2.3353343 
H    -0.6202466   -1.5161898   -0.3524129 
H    -0.3894326   -3.1399413   -0.6648971 
