24
Energy =
C     0.1892651    2.6218459   -0.9234364 
C     0.5360733    2.6935053    0.3818746 
C     1.2007374    1.6688607    0.9624778 
C     0.4955738    1.5176970   -1.6510643 
C     1.1535469    0.4737255   -1.0710303 
C     1.5132782    0.5630387    0.2410810 
O     0.2182670    3.8265015    1.1242799 
H    -0.6881313    3.7183940    1.5667606 
H     0.2114352    1.4796846   -2.6989276 
H     2.0456199   -0.2523776    0.7238022 
H     1.4793616    1.7424496    2.0078505 
H    -0.3330223    3.4557632   -1.3803648 
C     1.4930224   -0.7673579   -1.8770956 
C     0.5132566   -1.9513352   -1.6528019 
H     2.5245398   -1.0966467   -1.6159401 
H     1.5241175   -0.5255549   -2.9623855 
C     0.5050930   -2.4339942   -0.2112040 
O    -0.3607877   -1.8915155    0.7342483 
O     1.4410879   -3.3775999    0.1968199 
H     1.2872323   -3.5872338    1.1749689 
N    -0.8508049   -1.6437518   -2.1369974 
H     0.9179687   -2.8212086   -2.2224678 
H    -0.9336484   -0.6803999   -2.5326402 
H    -1.1201708   -2.3102665   -2.8979663 
