24
Energy =
C     0.0264736    1.3335785    1.1725753 
C    -0.8516039    2.0885886    0.4612494 
C    -0.7426018    2.1507863   -0.8852445 
C     1.0103033    0.6489777    0.5350886 
C     1.1209435    0.7091935   -0.8217027 
C     0.2343382    1.4630989   -1.5289622 
O    -1.8751316    2.8065846    1.0858771 
H    -1.9058922    2.6987315    2.0940675 
H     1.6921571    0.0283712    1.1146015 
H     0.3009428    1.5206618   -2.6130939 
H    -1.4507087    2.7566387   -1.4415218 
H    -0.0632057    1.2686382    2.2515262 
C     2.2040001   -0.0697816   -1.5405590 
C     1.8162154   -1.5295883   -1.8409405 
H     3.1428852   -0.0515497   -0.9416136 
H     2.4528259    0.4303846   -2.5034204 
C     1.6921914   -2.3788488   -0.5668904 
O     2.8054083   -3.0842465   -0.1252480 
O     0.5268068   -2.4005059    0.2120194 
H    -0.2039643   -1.7704093   -0.0884513 
N     0.6296782   -1.5571995   -2.7246824 
H     2.6764432   -1.9787090   -2.3959198 
H     0.5739612   -2.5042537   -3.1670327 
H    -0.2516059   -1.4674925   -2.1530905 
