24
Energy =
C    -0.2212923    2.3609749   -1.1935495 
C     0.1773863    2.7611146    0.0357770 
C     1.0719453    2.0220276    0.7314474 
C     0.2694307    1.2145856   -1.7301430 
C     1.1724039    0.4663344   -1.0369000 
C     1.5675736    0.8747980    0.2014565 
O    -0.3282334    3.9363200    0.5819032 
H    -1.1619918    3.7490832    1.1277796 
H    -0.0622445    0.9029208   -2.7174903 
H     2.2784937    0.2835987    0.7744375 
H     1.3875883    2.3590356    1.7129792 
H    -0.9331257    2.9673306   -1.7439664 
C     1.7077860   -0.8204175   -1.6260826 
C     0.7642525   -2.0101616   -1.3691822 
H     2.7099220   -1.0567414   -1.1989994 
H     1.8628902   -0.6835588   -2.7203333 
C     1.2206974   -3.2199612   -2.1905013 
O     2.1873437   -4.0800022   -1.6832456 
O     0.7352087   -3.4461417   -3.4798441 
H     0.0667868   -2.7475330   -3.7684001 
N     0.7410272   -2.2966068    0.0771094 
H    -0.2646564   -1.7498248   -1.7092592 
H     0.0998321   -1.6178200    0.5506039 
H     0.3284849   -3.2462184    0.2454246 
