24
Energy =
C     1.2825778    2.9201340    0.0339710 
C     0.0417771    2.8179447    0.5568054 
C    -0.6872465    1.7000507    0.3506022 
C     1.8028015    1.8978996   -0.6907401 
C     1.0853311    0.7546471   -0.8998183 
C    -0.1758491    0.6725011   -0.3731355 
O    -0.4883537    3.8682479    1.2986609 
H    -0.2633257    3.7612492    2.2817338 
H     2.8026489    2.0033483   -1.1051280 
H    -0.8013590   -0.1967452   -0.5043243 
H    -1.6867300    1.6346200    0.7671205 
H     1.8534478    3.8286649    0.1961067 
C     1.7429749   -0.3418591   -1.7389116 
C     1.0721619   -1.7343342   -1.8448151 
H     2.7639478   -0.5057857   -1.3251753 
H     1.8782328    0.0506066   -2.7709662 
C     0.7015674   -2.3404072   -0.4984835 
O    -0.5757107   -2.8378699   -0.2606492 
O     1.6636910   -2.4400294    0.4981713 
H     1.2484837   -2.8768384    1.3115068 
N    -0.0253832   -1.6979578   -2.8318670 
H     1.8483507   -2.4316189   -2.2360404 
H    -0.4222071   -2.6631389   -2.9385495 
H    -0.8155435   -1.1076892   -2.4880417 
