24
Energy =
C     0.7690124    2.1417330   -2.6327883 
C     1.3782431    2.9416957   -1.7282881 
C     1.9756398    2.4016463   -0.6409491 
C     0.7505447    0.7963484   -2.4505203 
C     1.3531491    0.2449349   -1.3597476 
C     1.9611910    1.0574187   -0.4512006 
O     1.3939216    4.3196306   -1.9191342 
H     0.6016155    4.7514172   -1.4561248 
H     0.2417054    0.1670084   -3.1787044 
H     2.4384770    0.6387153    0.4309594 
H     2.4643619    3.0553914    0.0731008 
H     0.2933039    2.5879146   -3.5001172 
C     1.3116679   -1.2508417   -1.1352844 
C     0.0971895   -1.6635761   -0.2699520 
H     2.2535494   -1.5734814   -0.6393355 
H     1.2786974   -1.7864224   -2.1119971 
C    -1.2267572   -1.3671654   -0.9606881 
O    -1.4371468   -1.7602576   -2.2781721 
O    -2.2442460   -0.7148267   -0.2775981 
H    -2.7463169   -1.3940683    0.2767322 
N     0.2013278   -3.0888327    0.0887289 
H     0.0901803   -1.0573619    0.6656294 
H     0.2339945   -3.6751721   -0.7808143 
H     1.0864145   -3.2604951    0.6216903 
