24
Energy =
C     0.9984587    1.3255987    1.2608058 
C     0.5422832    2.4862734    0.7385320 
C     0.4807204    2.6375407   -0.6111870 
C     1.3930202    0.3138008    0.4477321 
C     1.3341293    0.4585906   -0.9054745 
C     0.8760387    1.6296070   -1.4293000 
O     0.1454097    3.5050021    1.6102812 
H    -0.1984671    4.3373564    1.1428007 
H     1.7558386   -0.6120084    0.8864393 
H     0.8161653    1.7666974   -2.5064976 
H     0.1132010    3.5634604   -1.0407445 
H     1.0419258    1.2176102    2.3390376 
C     1.7700874   -0.6772122   -1.8095272 
C     0.7207421   -1.8167775   -1.8694106 
H     2.7367450   -1.0734063   -1.4280852 
H     1.9805708   -0.3086702   -2.8394549 
C    -0.5280387   -1.4636153   -2.6892271 
O    -0.6544541   -0.2223910   -3.3025893 
O    -1.5683222   -2.3790119   -2.8286153 
H    -1.2893275   -3.2801349   -2.4676256 
N     1.3605783   -3.0435926   -2.3790248 
H     0.3415661   -2.0202980   -0.8412944 
H     1.7907521   -2.8610223   -3.3191905 
H     2.1312566   -3.3456427   -1.7356002 
