24
Energy =
C     0.7899445    2.6602697   -1.1404589 
C     1.2538357    2.7439916    0.1272918 
C     1.7250475    1.6393199    0.7501985 
C     0.8067356    1.4715253   -1.7952083 
C     1.2865928    0.3548930   -1.1780073 
C     1.7428582    0.4464027    0.1027354 
O     1.2377080    3.9646974    0.7943236 
H     2.1066115    4.4667451    0.6483137 
H     0.4249952    1.4181662   -2.8122261 
H     2.1212845   -0.4340089    0.6164510 
H     2.0809746    1.7189459    1.7719390 
H     0.3986772    3.5498145   -1.6229333 
C     1.2993863   -0.9823364   -1.8906613 
C     0.1159321   -1.8864806   -1.4577462 
H     2.2644562   -1.4879673   -1.6658199 
H     1.2839552   -0.8473340   -2.9962555 
C    -1.2264989   -1.4849344   -2.0834599 
O    -1.3318570   -0.3534255   -2.8842766 
O    -2.3767426   -2.2310722   -1.8422887 
H    -2.1418539   -3.0894055   -1.3649669 
N     0.4423438   -3.2939372   -1.7566009 
H    -0.0440551   -1.7847326   -0.3588260 
H     0.6640809   -3.4011231   -2.7772192 
H     1.2914405   -3.5919606   -1.2187008 
