24
Energy =
C    -0.5169400    2.1401556   -1.4122862 
C    -0.1403138    2.7826806   -0.2829428 
C     0.8618008    2.2841745    0.4772930 
C     0.1142428    0.9995831   -1.7907010 
C     1.1297572    0.4963246   -1.0349570 
C     1.4978962    1.1439917    0.1057288 
O    -0.7906643    3.9508887    0.1019080 
H    -0.3217046    4.7644180   -0.2807507 
H    -0.2013356    0.4921903   -2.6991865 
H     2.2969279    0.7527897    0.7304673 
H     1.1439374    2.8028264    1.3871316 
H    -1.3301655    2.5435497   -2.0065386 
C     1.8212001   -0.7838327   -1.4474372 
C     0.9804891   -2.0406010   -1.1149916 
H     2.8219100   -0.8705407   -0.9654560 
H     2.0208725   -0.7449217   -2.5423667 
C     1.5858797   -3.2771319   -1.7570924 
O     0.8262027   -4.0626090   -2.6172109 
O     2.9182044   -3.6075282   -1.5301899 
H     3.1282602   -4.4677712   -2.0197687 
N     0.8515871   -2.2117826    0.3434320 
H    -0.0362364   -1.9412094   -1.5613572 
H     1.8017145   -2.2587913    0.7840628 
H     0.3388814   -1.3993900    0.7594473 
