24
Energy =
C     0.0195499    2.1372961   -2.3180223 
C     0.7884773    2.9736204   -1.5835792 
C     1.7497127    2.4735415   -0.7729493 
C     0.2201557    0.7965740   -2.2558401 
C     1.1979783    0.2862288   -1.4550529 
C     1.9556736    1.1333780   -0.7044403 
O     0.5841006    4.3479961   -1.6543142 
H     1.1590546    4.7609734   -2.3802361 
H    -0.4137053    0.1314622   -2.8391708 
H     2.7260128    0.7454781   -0.0424523 
H     2.3454686    3.1553444   -0.1753183 
H    -0.7623270    2.5494001   -2.9471110 
C     1.4108886   -1.2101130   -1.3657751 
C     0.5529789   -1.8526552   -0.2495483 
H     2.4863187   -1.4189735   -1.1699849 
H     1.1693324   -1.6933791   -2.3400140 
C    -0.9359118   -1.6455765   -0.5015829 
O    -1.6994855   -0.8988440    0.3858659 
O    -1.5403747   -2.1741542   -1.6360034 
H    -2.5283698   -1.9550969   -1.6050498 
N     0.9122003   -3.2832640   -0.0763476 
H     0.7602936   -1.3248212    0.7106794 
H     0.0860773   -3.9019569   -0.2710230 
H     1.6500046   -3.5948806   -0.7503713 
