24
Energy =
C     0.8909914    2.2108329    0.6771743 
C    -0.3082359    2.6982447    0.2848544 
C    -0.8867940    2.2401457   -0.8489995 
C     1.5128597    1.2559381   -0.0596579 
C     0.9344172    0.7857456   -1.2002544 
C    -0.2714757    1.2857483   -1.5908484 
O    -0.9437924    3.6759089    1.0453068 
H    -1.5764572    3.2506632    1.7145616 
H     2.4711414    0.8663885    0.2754892 
H    -0.7526461    0.9208671   -2.4946431 
H    -1.8443585    2.6441143   -1.1561334 
H     1.3465142    2.5879730    1.5865223 
C     1.6162986   -0.2956206   -2.0146144 
C     1.2843128   -1.7249700   -1.5261905 
H     2.7162000   -0.1307897   -1.9997793 
H     1.3137906   -0.2066660   -3.0833577 
C     1.6326853   -1.9507588   -0.0506912 
O     0.6253542   -2.1398280    0.8877683 
O     2.9589453   -1.9750461    0.3815281 
H     3.6068650   -1.8205580   -0.3749273 
N    -0.1218838   -2.0295806   -1.8490264 
H     1.9295772   -2.4362337   -2.0913023 
H    -0.3259188   -3.0270361   -1.5978557 
H    -0.7491509   -1.4593779   -1.2316354 
