24
Energy =
C     0.5106776    2.1771787    0.6389181 
C    -0.7832605    2.3465478    0.2836788 
C    -1.2664103    1.7394631   -0.8243234 
C     1.3258496    1.3918522   -0.1099738 
C     0.8467885    0.7728648   -1.2257838 
C    -0.4571728    0.9538687   -1.5789498 
O    -1.6153975    3.1524626    1.0531389 
H    -2.1120240    2.5978205    1.7423129 
H     2.3605884    1.2550703    0.1954150 
H    -0.8590248    0.4680171   -2.4634437 
H    -2.3040966    1.8910119   -1.1004921 
H     0.8874439    2.6711779    1.5286969 
C     1.7516860   -0.1179520   -2.0541194 
C     1.7623191   -1.5930169   -1.5811236 
H     2.7925979    0.2773004   -2.0206535 
H     1.4533618   -0.0753199   -3.1244720 
C     2.2654104   -1.7408319   -0.1514474 
O     1.3967801   -1.6412678    0.9327780 
O     3.6274626   -1.8871487    0.0858538 
H     3.7792037   -1.9685752    1.0829318 
N     0.4481528   -2.2297624   -1.7855061 
H     2.5079878   -2.1414500   -2.2003301 
H    -0.2571347   -1.8250187   -1.1250448 
H     0.1143792   -2.0727501   -2.7646318 
