24
Energy =
C     0.4840911    2.0839601    0.8522774 
C     0.1393402    2.8844676   -0.1810240 
C     0.4157506    2.4950923   -1.4539860 
C     1.1059657    0.8991519    0.6268412 
C     1.3902963    0.5045719   -0.6458766 
C     1.0368365    1.3107593   -1.6853276 
O    -0.4959948    4.0996268    0.0928824 
H    -0.7382161    4.6335465   -0.7345877 
H     1.3678532    0.2673774    1.4719327 
H     1.2407584    1.0068310   -2.7086257 
H     0.1372151    3.1273311   -2.2900844 
H     0.2513765    2.4026573    1.8625430 
C     2.0737259   -0.8251763   -0.9070220 
C     1.0713180   -1.9667223   -1.1870118 
H     2.7169750   -1.1004783   -0.0409060 
H     2.7605143   -0.7241269   -1.7753057 
C     0.1878199   -2.2698249    0.0216823 
O     0.7131955   -2.1948363    1.3084872 
O    -1.1051479   -2.7530178   -0.1444754 
H    -1.5126824   -2.9217066    0.7663183 
N     0.3001690   -1.6381531   -2.4019363 
H     1.6478223   -2.9052948   -1.3548210 
H     0.8986090   -1.8060823   -3.2432604 
H    -0.5185156   -2.2900598   -2.4877833 
