24
Energy =
C     0.3761140    2.0262636    0.7680704 
C    -0.0018830    2.8403818   -0.2439953 
C     0.2814494    2.5057702   -1.5242054 
C     1.0352711    0.8696605    0.5024205 
C     1.3254874    0.5267527   -0.7838258 
C     0.9393720    1.3501543   -1.7978799 
O    -0.6771104    4.0247359    0.0327099 
H    -1.6800595    3.8758591    0.0247206 
H     1.3245423    0.2167348    1.3231347 
H     1.1581362    1.0917975   -2.8311558 
H    -0.0202740    3.1728256   -2.3245490 
H     0.1476194    2.3087327    1.7904925 
C     2.0436572   -0.7694374   -1.0873396 
C     1.0613692   -1.9140354   -1.4079764 
H     2.6825053   -1.0746433   -0.2264978 
H     2.7377954   -0.6119120   -1.9437361 
C     1.7991848   -3.1128496   -1.9821739 
O     3.0353022   -3.5051390   -1.4773966 
O     1.2232642   -3.8424478   -3.0146110 
H     1.8372118   -4.6103285   -3.2563860 
N     0.3155991   -2.2688958   -0.1852970 
H     0.3576657   -1.5906099   -2.2115132 
H    -0.4221908   -1.5460304   -0.0161791 
H    -0.2041032   -3.1671942   -0.3422367 
