24
Energy =
C    -0.5059288    2.1629208   -0.2097628 
C     0.3040837    2.3830484    0.8511308 
C     1.4867773    1.7326859    0.9461415 
C    -0.1276533    1.3027885   -1.1894406 
C     1.0692287    0.6562047   -1.1082520 
C     1.8706853    0.8684631   -0.0277013 
O    -0.0835199    3.2713484    1.8499472 
H     0.2524999    4.2067179    1.6494405 
H    -0.7954812    1.1226720   -2.0303006 
H     2.8195821    0.3468368    0.0667319 
H     2.1170392    1.9049140    1.8117516 
H    -1.4620155    2.6729914   -0.2618613 
C     1.4840196   -0.3228422   -2.1850590 
C     0.9671870   -1.7478409   -1.8982556 
H     2.5935041   -0.3391193   -2.2679536 
H     1.1176177    0.0179571   -3.1797815 
C    -0.5618486   -1.8032788   -1.9040973 
O    -1.2391520   -1.9923886   -0.7062748 
O    -1.3003786   -1.6206011   -3.0734183 
H    -0.6949493   -1.5744798   -3.8811051 
N     1.5544271   -2.6622906   -2.8944379 
H     1.2831056   -2.0539546   -0.8717380 
H     2.5840671   -2.7477227   -2.7210569 
H     1.1611456   -3.6257859   -2.7580914 
