24
Energy =
C     0.7885569    2.3590364    0.4753452 
C    -0.5361164    2.5495906    0.2821442 
C    -1.1911743    1.8137856   -0.6547474 
C     1.4669550    1.4437800   -0.2621222 
C     0.8188528    0.7086561   -1.2085240 
C    -0.5169809    0.8966947   -1.3950170 
O    -1.1990190    3.5052716    1.0578125 
H    -2.1935730    3.5706982    0.8706216 
H     2.5291329    1.2978146   -0.0814245 
H    -1.0529083    0.3000570   -2.1284947 
H    -2.2559426    1.9525362   -0.8097184 
H     1.2977795    2.9454888    1.2324674 
C     1.5718036   -0.3218898   -2.0300856 
C     1.3179214   -1.7659894   -1.5496297 
H     2.6654711   -0.1163452   -1.9950887 
H     1.2757370   -0.2303722   -3.0972784 
C     1.7047191   -1.9490044   -0.0813118 
O     0.9415784   -2.7354473    0.7764248 
O     2.8963835   -1.4078460    0.3902784 
H     3.0021076   -1.6601262    1.3648794 
N    -0.0842689   -2.1251268   -1.8462871 
H     2.0020502   -2.4467834   -2.1070044 
H    -0.1754081   -2.3321179   -2.8687084 
H    -0.3308616   -3.0187109   -1.3533303 
