24
Energy =
C     2.5390584    1.7312890    0.2393832 
C     1.6378178    2.7450385    0.3368483 
C     0.4847017    2.6847179   -0.3674710 
C     2.2841241    0.6671155   -0.5633007 
C     1.1283219    0.6100203   -1.2814352 
C     0.2251716    1.6234328   -1.1722097 
O     1.8713545    3.8569078    1.1514291 
H     2.7480865    3.8216343    1.6600619 
H     3.0090118   -0.1401736   -0.6256447 
H    -0.7138008    1.5871054   -1.7204950 
H    -0.2311766    3.4948647   -0.2749283 
H     3.4638496    1.7680986    0.8054270 
C     0.8315472   -0.5884029   -2.1585676 
C     0.2174859   -1.7550270   -1.3503072 
H     1.7706258   -0.9276371   -2.6483793 
H     0.1381237   -0.3017073   -2.9819801 
C    -1.0941701   -1.3580495   -0.6895182 
O    -2.1900189   -0.9779575   -1.4595975 
O    -1.1864064   -1.3011904    0.6960469 
H    -2.1264459   -1.0247916    0.9480474 
N     0.0453198   -2.9301483   -2.2221904 
H     0.9035404   -2.0302915   -0.5168326 
H    -0.6059896   -2.6944940   -3.0100562 
H     0.9646728   -3.2056389   -2.6398888 
