24
Energy =
C     1.0513950    1.9780690    0.8958769 
C     0.6654023    2.8938364   -0.0325461 
C     0.6502634    2.5528611   -1.3413176 
C     1.4198372    0.7298559    0.5111724 
C     1.4080272    0.3871727   -0.8066832 
C     1.0176041    1.3061239   -1.7317967 
O     0.2791290    4.1881650    0.3304833 
H     0.3194167    4.3665780    1.3280025 
H     1.7218525    0.0084165    1.2662880 
H     0.9964112    1.0508267   -2.7885994 
H     0.3390769    3.2913490   -2.0723942 
H     1.0652449    2.2416548    1.9479997 
C     1.8022334   -1.0068329   -1.2412181 
C     0.5735002   -1.8866533   -1.5766703 
H     2.4187009   -1.5083175   -0.4608822 
H     2.4594028   -0.9267868   -2.1375711 
C     1.0078384   -3.1831011   -2.2357724 
O     0.7667117   -3.3925003   -3.5884583 
O     1.7187792   -4.1386951   -1.5197623 
H     1.9073966   -4.9209820   -2.1327773 
N    -0.2292429   -2.1502188   -0.3695180 
H    -0.0639390   -1.3693060   -2.3306373 
H     0.3708139   -2.5921444    0.3675766 
H    -0.6062736   -1.2524725    0.0137048 
