24
Energy =
C     0.1538188    2.2600770    0.2274535 
C    -0.0739593    2.8355323   -0.9748511 
C     0.3821514    2.2332117   -2.1055307 
C     0.8331000    1.0886370    0.3119697 
C     1.2954212    0.4834328   -0.8167213 
C     1.0624264    1.0614499   -2.0273049 
O    -0.7793944    4.0421601   -1.0199454 
H    -0.9072392    4.4114933   -1.9559808 
H     1.0005907    0.6411640    1.2881107 
H     1.4189345    0.5897200   -2.9402622 
H     0.2027917    2.6865841   -3.0745625 
H    -0.2164155    2.7497065    1.1214458 
C     2.0380540   -0.8315520   -0.7335074 
C     1.1348245   -2.0355147   -1.0925255 
H     2.4761534   -0.9771631    0.2800473 
H     2.9060868   -0.7965361   -1.4322338 
C     1.9622918   -3.3010159   -1.2241094 
O     2.4479426   -3.6811791   -2.4672002 
O     2.3194693   -4.0395505   -0.1041805 
H     1.5563703   -4.6623170    0.1167323 
N     0.0569060   -2.2012785   -0.1002625 
H     0.6830419   -1.8749183   -2.0992001 
H     0.4557453   -2.1994792    0.8691274 
H    -0.6089260   -1.3958876   -0.1679501 
