24
Energy =
C     0.5180936    2.0599495    0.7057014 
C    -0.7277914    2.3311121    0.2548751 
C    -1.1762287    1.7547559   -0.8836784 
C     1.3195065    1.2049174    0.0207418 
C     0.8771927    0.6232498   -1.1282507 
C    -0.3805243    0.8982378   -1.5741599 
O    -1.5474589    3.2063300    0.9600949 
H    -2.1277333    2.6983727    1.6185684 
H     2.3117158    0.9796057    0.4029358 
H    -0.7552032    0.4365891   -2.4838884 
H    -2.1750080    1.9886461   -1.2348156 
H     0.8661962    2.5286990    1.6198145 
C     1.7600470   -0.3464189   -1.8824155 
C     1.6004209   -1.7911096   -1.3491771 
H     2.8246324   -0.0310821   -1.8072837 
H     1.5159657   -0.2972672   -2.9689779 
C     2.1993319   -2.8302248   -2.2934930 
O     2.3583791   -2.5384895   -3.6375989 
O     2.4991944   -4.1145080   -1.8685871 
H     2.3361464   -4.1641790   -0.8756289 
N     2.1800426   -1.8545831    0.0006801 
H     0.5142414   -2.0401449   -1.2918115 
H     1.8832499   -2.7338326    0.4774649 
H     3.2293206   -1.7673638   -0.0208460 
