24
Energy =
C     0.6761441    1.5678788    1.1586396 
C     0.1639977    2.5875803    0.4319692 
C     0.2042736    2.5428183   -0.9196761 
C     1.2412097    0.5028463    0.5351784 
C     1.2987583    0.4568083   -0.8254305 
C     0.7695191    1.4821696   -1.5502604 
O    -0.4128160    3.6777203    1.0753815 
H     0.2783333    4.3985876    1.2507843 
H     1.6432593   -0.3123557    1.1312656 
H     0.7874189    1.4558121   -2.6375001 
H    -0.2261872    3.3585664   -1.4905867 
H     0.6232727    1.6088349    2.2415220 
C     1.9109997   -0.7401977   -1.5216923 
C     0.9033272   -1.9069195   -1.6632752 
H     2.7973166   -1.0823066   -0.9433196 
H     2.2844915   -0.4556713   -2.5327226 
C    -0.2888718   -1.5307913   -2.5326995 
O    -1.5756510   -1.8806420   -2.1353668 
O    -0.1147483   -0.8312426   -3.7245052 
H    -1.0149415   -0.7309345   -4.1742276 
N     1.5757127   -3.1111587   -2.1983726 
H     0.4790564   -2.1313472   -0.6557865 
H     2.6022775   -2.9747704   -2.3539365 
H     1.4663896   -3.9090030   -1.5286119 
