24
Energy =
C     1.7045819    1.8859084    0.7991692 
C     0.4771527    2.4547843    0.8012290 
C    -0.3963875    2.1838655   -0.1955791 
C     2.0607376    1.0364240   -0.1977932 
C     1.1885343    0.7624869   -1.2074809 
C    -0.0461750    1.3381888   -1.1980083 
O     0.1147835    3.3225837    1.8267351 
H    -0.3345329    2.8151884    2.5816889 
H     3.0460019    0.5772202   -0.1799627 
H    -0.7640718    1.1119106   -1.9842527 
H    -1.3769058    2.6471405   -0.1785071 
H     2.3970202    2.1141249    1.6025440 
C     1.5685383   -0.2099547   -2.3028620 
C     1.1044274   -1.6434853   -1.9754037 
H     2.6743742   -0.2142411   -2.4398923 
H     1.1510111    0.1270973   -3.2764449 
C    -0.4165025   -1.7718451   -1.9009294 
O    -1.0009390   -2.1726567   -0.7080094 
O    -1.2444543   -1.4695510   -2.9823488 
H    -0.7172312   -1.2308727   -3.8066864 
N     1.7083381   -2.5701695   -2.9487490 
H     1.4750451   -1.9066944   -0.9542389 
H     1.4370665   -3.5537975   -2.7034542 
H     1.3332176   -2.3888830   -3.9091347 
