24
Energy =
C     2.3472116    1.9316233    0.2443499 
C     1.2238379    2.6635570    0.4207367 
C     0.0926000    2.3380566   -0.2448390 
C     2.3412266    0.8644452   -0.5945145 
C     1.2070460    0.5308105   -1.2729765 
C     0.0804866    1.2750848   -1.0904736 
O     1.2327998    3.7550799    1.2827052 
H     0.9515283    3.4763056    2.2167398 
H     3.2510596    0.2819721   -0.7162210 
H    -0.8428444    1.0059905   -1.6010217 
H    -0.7998456    2.9349793   -0.0873316 
H     3.2495683    2.2059426    0.7810329 
C     1.1942041   -0.6703613   -2.1980383 
C     0.4308846   -1.8702945   -1.5804290 
H     2.2393050   -0.9712419   -2.4321266 
H     0.7421142   -0.3942810   -3.1781089 
C    -1.0710326   -1.7138618   -1.7386260 
O    -1.6997427   -2.0400681   -2.9347030 
O    -1.8121115   -1.0970710   -0.7370750 
H    -2.7954537   -1.1648267   -0.9746152 
N     0.9027444   -3.1304712   -2.1811891 
H     0.6030099   -1.9126122   -0.4787922 
H     0.7476635   -3.1115221   -3.2184153 
H     1.9271027   -3.2540909   -2.0062662 
