24
Energy =
C     1.1511992    2.0379006    0.6924027 
C     0.9876859    2.8987175   -0.3384398 
C     0.9877355    2.4389222   -1.6110637 
C     1.3279301    0.7137815    0.4531797 
C     1.3463058    0.2452611   -0.8261782 
C     1.1661485    1.1163036   -1.8582791 
O     0.8100143    4.2557951   -0.0887106 
H     1.7016836    4.7381488   -0.0708799 
H     1.4503188    0.0320317    1.2907030 
H     1.1542232    0.7588715   -2.8854655 
H     0.8359229    3.1370557   -2.4273171 
H     1.1318778    2.4164785    1.7088537 
C     1.5220401   -1.2338917   -1.0948642 
C     0.1792604   -1.9962631   -1.0094658 
H     2.2404965   -1.6571795   -0.3589069 
H     1.9771188   -1.3929545   -2.0992754 
C    -0.8138432   -1.5246382   -2.0622326 
O    -2.0444645   -1.0012740   -1.6794531 
O    -0.4915333   -1.5778005   -3.4150238 
H    -1.2862693   -1.2495914   -3.9474426 
N     0.4223698   -3.4442864   -1.1206815 
H    -0.2986646   -1.7923112   -0.0234209 
H     0.8838246   -3.6555199   -2.0385653 
H     1.0676006   -3.7588955   -0.3588531 
