24
Energy =
C     0.0836029    1.9927639    0.5354061 
C    -0.2799672    2.7380489   -0.5326526 
C     0.1381599    2.3935650   -1.7719167 
C     0.8807348    0.9054942    0.3689324 
C     1.3125571    0.5554570   -0.8745593 
C     0.9315973    1.3061144   -1.9465645 
O    -1.0924046    3.8535199   -0.3571293 
H    -0.5327416    4.6857669   -0.2082045 
H     1.1525950    0.3029378    1.2333977 
H     1.2543038    1.0405556   -2.9496989 
H    -0.1739005    2.9921261   -2.6209356 
H    -0.2795710    2.2686446    1.5202066 
C     2.1937099   -0.6635671   -1.0696045 
C     1.4247514   -2.0114594   -1.0233331 
H     2.9972677   -0.6673196   -0.2982540 
H     2.7258196   -0.5948989   -2.0444510 
C     1.0472646   -2.4209308    0.3916001 
O    -0.0714228   -1.8878797    1.0245166 
O     1.8831441   -3.2650267    1.1088340 
H     1.4672832   -3.4384075    2.0149872 
N     0.2655074   -2.0018761   -1.9348279 
H     2.1207119   -2.8154700   -1.3565761 
H    -0.4862965   -1.3832146   -1.5427018 
H     0.5415404   -1.6143883   -2.8662974 
