24
Energy =
C    -0.0392145    2.5746653   -1.0417806 
C    -0.0943625    2.6543266    0.3140376 
C     0.4927245    1.6948655    1.0636251 
C     0.6000804    1.5370967   -1.6399230 
C     1.1878125    0.5655841   -0.8866628 
C     1.1347210    0.6561785    0.4717366 
O    -0.7429609    3.7112935    0.9607250 
H    -1.1668147    4.3850478    0.3329617 
H     0.6391383    1.4941811   -2.7250674 
H     1.6014264   -0.1033091    1.0947415 
H     0.4415300    1.7683350    2.1446673 
H    -0.5052624    3.3425350   -1.6490272 
C     1.9044880   -0.5964051   -1.5500753 
C     1.0674124   -1.9021187   -1.5971291 
H     2.8549898   -0.7934131   -1.0035091 
H     2.2078673   -0.3258983   -2.5855793 
C     0.7354725   -2.4213888   -0.2004640 
O     1.7305760   -3.0251172    0.5586378 
O    -0.5216490   -2.2369949    0.3641268 
H    -0.5257256   -2.6417787    1.2915795 
N    -0.1046780   -1.7764883   -2.5000862 
H     1.7251928   -2.6945932   -2.0213118 
H    -0.9977517   -1.9839454   -1.9886741 
H    -0.2203802   -0.8060608   -2.8674389 
