24
Energy =
C    -0.4500987    2.1745950   -1.6980508 
C     0.1978825    2.9463572   -0.7845076 
C     1.2922236    2.4604669   -0.1550680 
C     0.0027423    0.9270587   -1.9809743 
C     1.1125488    0.4426475   -1.3583068 
C     1.7499409    1.2146437   -0.4354042 
O    -0.2382848    4.2390914   -0.4759809 
H    -1.0837379    4.5177025   -0.9621694 
H    -0.5335020    0.3155129   -2.7017775 
H     2.6183049    0.8334192    0.0955838 
H     1.7924919    3.0779946    0.5830017 
H    -1.3346374    2.5513715   -2.2003557 
C     1.5997192   -0.9630559   -1.6501821 
C     0.9756271   -2.0660626   -0.7371051 
H     2.7074871   -0.9953599   -1.5455443 
H     1.4243879   -1.1874288   -2.7255647 
C    -0.0344392   -1.5559060    0.3042316 
O     0.4486898   -0.9583769    1.4624991 
O    -1.4142191   -1.5998395    0.1089084 
H    -1.6445972   -2.1724410   -0.6854053 
N     0.4467207   -3.1695310   -1.5665198 
H     1.7944847   -2.4773008   -0.0990955 
H    -0.1408808   -2.8029350   -2.3531717 
H     1.2464876   -3.6879121   -2.0045999 
