24
Energy =
C    -0.3348226    2.3524653   -1.3798267 
C     0.1451692    2.8519815   -0.2180157 
C     1.1188654    2.1929321    0.4518973 
C     0.1546273    1.1873921   -1.8742019 
C     1.1376312    0.5190976   -1.2069046 
C     1.6129521    1.0262944   -0.0355280 
O    -0.3588027    4.0470554    0.2849687 
H    -1.1410996    3.8717484    0.9065903 
H    -0.2520982    0.7865529   -2.8008561 
H     2.3879904    0.5025236    0.5185116 
H     1.4968133    2.6078135    1.3802120 
H    -1.1151369    2.8906521   -1.9075297 
C     1.6639763   -0.7978381   -1.7370303 
C     0.8952507   -2.0051982   -1.1491406 
H     2.7442770   -0.8902438   -1.4868092 
H     1.5949985   -0.8233284   -2.8487358 
C    -0.5874062   -1.9387634   -1.4900206 
O    -1.0086267   -1.9489184   -2.8158831 
O    -1.5308138   -1.8196842   -0.4786552 
H    -2.4538936   -1.8058096   -0.8930310 
N     1.5261759   -3.2806610   -1.5724470 
H     0.9349605   -1.9515421   -0.0360332 
H     0.8630725   -3.8568937   -2.1472166 
H     2.3659276   -3.1337556   -2.1803708 
