24
Energy =
C     1.5284278    1.6968882    1.0396010 
C     1.2241607    2.7938184    0.2958282 
C     1.0517747    2.6689162   -1.0399083 
C     1.6617694    0.4847624    0.4439916 
C     1.4981643    0.3591278   -0.9019882 
C     1.1829527    1.4588840   -1.6406080 
O     1.0805751    4.0574208    0.8776218 
H     1.2187979    4.0679433    1.8823118 
H     1.8893351   -0.3873599    1.0516988 
H     1.0318355    1.3781914   -2.7144585 
H     0.8037232    3.5505108   -1.6214012 
H     1.6603938    1.7851918    2.1125602 
C     1.6235894   -0.9953588   -1.5664073 
C     0.2811978   -1.7574509   -1.5540538 
H     2.4050263   -1.6018503   -1.0573533 
H     1.9799016   -0.8584446   -2.6136433 
C     0.3133434   -2.9411241   -2.5329498 
O     0.6096609   -2.6777780   -3.8643816 
O     0.0446251   -4.2638760   -2.1729928 
H    -0.2227598   -4.3755678   -1.2106012 
N    -0.0510371   -2.1095865   -0.1593682 
H    -0.5098701   -1.0812494   -1.9550396 
H    -1.0258940   -2.4914895   -0.1065706 
H     0.6169326   -2.8261949    0.2128241 
