24
Energy =
C     0.1337858    2.5775476   -0.2135277 
C     0.4647245    2.3185929    1.0727897 
C     1.1584486    1.1881284    1.3724629 
C     0.4837365    1.7157919   -1.1998762 
C     1.1696050    0.5745553   -0.9064473 
C     1.5125817    0.3237422    0.3894929 
O     0.0842898    3.2294061    2.0650070 
H     0.3674066    2.9620028    3.0021513 
H     0.2150373    1.9546803   -2.2251302 
H     2.0805554   -0.5650200    0.6529825 
H     1.4358734    0.9727027    2.3994039 
H    -0.4129716    3.4846328   -0.4494227 
C     1.5611151   -0.3956896   -2.0102607 
C     0.5831088   -1.5936714   -2.1667673 
H     2.5872464   -0.7807974   -1.8129455 
H     1.6343014    0.1395431   -2.9833990 
C     0.5751220   -2.4771054   -0.8982133 
O     1.8087270   -2.8948366   -0.4018904 
O    -0.5636862   -2.8926781   -0.1920570 
H    -1.4476283   -2.8121072   -0.6625671 
N    -0.7264396   -1.1588942   -2.7142227 
H     1.0325289   -2.2378460   -2.9527472 
H    -1.5571416   -1.5255625   -2.2117663 
H    -0.8304426   -0.1208186   -2.7301764 
