24
Energy =
C     0.5610684    2.5219472   -0.1367163 
C    -0.5466812    2.3046410    0.6083205 
C    -0.9519590    1.0399689    0.8657157 
C     1.2654867    1.4734829   -0.6335393 
C     0.8638809    0.1965347   -0.3782621 
C    -0.2531275   -0.0142762    0.3727355 
O    -1.2664579    3.3820545    1.1148692 
H    -2.0057704    3.6471726    0.4728512 
H     2.1427904    1.6673680   -1.2448519 
H    -0.5956875   -1.0246808    0.5799908 
H    -1.8396755    0.8824645    1.4682695 
H     0.8745750    3.5410654   -0.3368479 
C     1.6261667   -0.9772038   -0.9539395 
C     0.9871199   -1.5103830   -2.2489239 
H     1.6629848   -1.7938940   -0.1999919 
H     2.6866139   -0.7055992   -1.1540868 
C     0.9684295   -0.4507630   -3.3465231 
O    -0.1191740    0.4034568   -3.4614955 
O     2.0448184   -0.2876190   -4.2089054 
H     2.7486820    0.2736559   -3.7560874 
N     1.7293867   -2.7179976   -2.6524177 
H    -0.0815687   -1.7693295   -2.0587410 
H     1.4095296   -3.5295723   -2.0733809 
H     1.4998512   -2.9586998   -3.6484005 
