24
Energy =
C     1.3478021    2.0464267    0.6194794 
C     0.5660621    2.9122347   -0.0656293 
C     0.1324887    2.5958074   -1.3076613 
C     1.7082085    0.8636233    0.0594386 
C     1.2869460    0.5435582   -1.1959921 
C     0.4879078    1.4144498   -1.8739266 
O     0.1979950    4.1231464    0.5121785 
H     0.8660724    4.8491503    0.2779550 
H     2.3252993    0.1696287    0.6252546 
H     0.1257317    1.1694412   -2.8691539 
H    -0.5066041    3.2925858   -1.8390100 
H     1.6747235    2.3042692    1.6212698 
C     1.6650196   -0.7849473   -1.8146268 
C     0.6329319   -1.8795736   -1.4851873 
H     2.6680001   -1.1062111   -1.4525204 
H     1.7574455   -0.6680238   -2.9179954 
C     0.8590678   -3.1394269   -2.3311658 
O     2.1212651   -3.4215880   -2.8426201 
O    -0.1729043   -4.0504477   -2.5570482 
H    -1.0310548   -3.7673371   -2.1065741 
N     0.6874148   -2.1511847   -0.0337395 
H    -0.3757001   -1.4922790   -1.7617150 
H    -0.2453336   -1.9460098    0.3960922 
H     0.9013029   -3.1582764    0.1681297 
