24
Energy =
C     0.3544748    2.4834870   -0.0465157 
C    -0.9704561    2.2210826    0.0308825 
C    -1.4679831    1.0842403   -0.5082491 
C     1.1891217    1.6048758   -0.6581360 
C     0.6955602    0.4571917   -1.2017538 
C    -0.6398608    0.2006284   -1.1212222 
O    -1.8222899    3.1242944    0.6588900 
H    -1.9192622    2.9005067    1.6431251 
H     2.2519709    1.8276404   -0.7094497 
H    -1.0533322   -0.7097504   -1.5481983 
H    -2.5335339    0.8915035   -0.4473507 
H     0.7395050    3.4029382    0.3819382 
C     1.6201905   -0.5337037   -1.8732002 
C     1.9264617   -1.7544891   -0.9714559 
H     2.5738783   -0.0451480   -2.1774387 
H     1.1447532   -0.8766358   -2.8206338 
C     2.6349977   -2.8415644   -1.7596982 
O     3.8867916   -2.6064243   -2.3204280 
O     2.0107339   -4.0624252   -1.9817525 
H     2.6365464   -4.6531429   -2.5138535 
N     2.7203224   -1.3517070    0.2027222 
H     0.9718240   -2.2131346   -0.6242149 
H     3.6026010   -0.8783121   -0.1088096 
H     2.1788900   -0.6739536    0.7877029 
