24
Energy =
C     0.1968216    2.5989308   -1.1483892 
C     0.8376264    2.8931590    0.0059185 
C     1.6939473    1.9987875    0.5518128 
C     0.4063019    1.4046121   -1.7593230 
C     1.2690471    0.5004558   -1.2169672 
C     1.9081955    0.8021693   -0.0527490 
O     0.6190442    4.1177847    0.6287859 
H    -0.1349771    4.0446813    1.3029956 
H    -0.1261862    1.1737723   -2.6805747 
H     2.5938024    0.0905388    0.4004512 
H     2.2050895    2.2511813    1.4744296 
H    -0.4856425    3.3258858   -1.5764122 
C     1.4853434   -0.8422465   -1.8790803 
C     0.5277096   -1.9151884   -1.3277964 
H     2.5353407   -1.1748638   -1.7204248 
H     1.3542463   -0.7591159   -2.9821860 
C    -0.9290613   -1.6050195   -1.6460406 
O    -1.8962492   -1.7227178   -0.6554022 
O    -1.3097872   -1.2343894   -2.9320243 
H    -2.3146594   -1.1120445   -2.9550358 
N     0.9464604   -3.2251033   -1.8577226 
H     0.6053038   -1.9295318   -0.2149724 
H     0.3586009   -3.9749386   -1.4193155 
H     0.7418309   -3.2614679   -2.8866015 
