24
Energy =
C    -0.0092192    2.3349925   -1.6326354 
C    -0.0438752    2.7989336   -0.3627028 
C     0.5531250    2.0863127    0.6296717 
C     0.6180991    1.1666231   -1.9217048 
C     1.2257415    0.4543748   -0.9331503 
C     1.1824041    0.9179640    0.3462296 
O    -0.7004849    4.0067971   -0.1057166 
H    -0.6858864    4.2847421    0.8696538 
H     0.6286087    0.8070824   -2.9475782 
H     1.6445602    0.3511605    1.1505850 
H     0.5251240    2.4460160    1.6524640 
H    -0.4934800    2.9109567   -2.4137248 
C     1.9063805   -0.8593093   -1.2481293 
C     0.9258985   -2.0433444   -1.1388976 
H     2.7675001   -1.0235813   -0.5615314 
H     2.3387851   -0.8174108   -2.2738536 
C     1.5345604   -3.3041123   -1.7307322 
O     1.1371781   -3.7397879   -2.9882088 
O     2.5191568   -4.0056457   -1.0466434 
H     2.8069704   -4.7968429   -1.6086373 
N     0.5269754   -2.2196482    0.2708813 
H     0.0229596   -1.8245992   -1.7570575 
H    -0.1692491   -3.0004782    0.3350690 
H     1.3601530   -2.5379732    0.8233699 
