24
Energy =
C     1.0047231    2.5216947   -0.0592169 
C    -0.1121775    2.8901007   -0.7421146 
C    -0.5995346    2.0826988   -1.7117778 
C     1.6302386    1.3543513   -0.3542660 
C     1.1472220    0.5463245   -1.3384526 
C     0.0210785    0.9132611   -2.0096420 
O    -0.7768274    4.0900553   -0.4691730 
H    -0.3731188    4.6211372    0.2950377 
H     2.5099490    1.0619364    0.2134821 
H    -0.3941410    0.2704881   -2.7810776 
H    -1.4977732    2.3818355   -2.2412711 
H     1.3963534    3.1556443    0.7290227 
C     1.8248453   -0.7740927   -1.6481409 
C     1.3278479   -1.9750670   -0.7819742 
H     2.9233395   -0.6611525   -1.5082502 
H     1.7128267   -0.9904573   -2.7335750 
C     0.2229904   -1.6351783    0.2319327 
O     0.5832146   -1.0308049    1.4307900 
O    -1.1319714   -1.8377355   -0.0258555 
H    -1.2587408   -2.3955722   -0.8532050 
N     0.9831752   -3.1187715   -1.6527567 
H     2.1737829   -2.2872448   -0.1233821 
H     0.3790088   -2.8165302   -2.4540437 
H     1.8607260   -3.5137171   -2.0701030 
