24
Energy =
C    -0.1835649    2.4242827   -0.7055516 
C     0.4908733    2.6921600    0.4356816 
C     1.4809431    1.8544233    0.8437516 
C     0.1225432    1.3279112   -1.4449942 
C     1.1199217    0.4910266   -1.0460122 
C     1.7921165    0.7575538    0.1078243 
O     0.1447640    3.8311055    1.1694192 
H     0.6923137    3.9613842    2.0133353 
H    -0.4364427    1.1270521   -2.3554372 
H     2.5756795    0.0867536    0.4520846 
H     2.0225309    2.0563167    1.7615431 
H    -0.9739494    3.0989592   -1.0166356 
C     1.4507886   -0.7441973   -1.8557202 
C     0.6907038   -1.9837194   -1.3373384 
H     2.5466933   -0.9391696   -1.8255713 
H     1.2070380   -0.5675030   -2.9281722 
C     0.7632933   -3.1497161   -2.3256551 
O     1.8147233   -3.2303396   -3.2314882 
O    -0.1972445   -4.1606004   -2.3227868 
H    -0.8761457   -4.0385587   -1.5861166 
N     1.2157741   -2.3488530   -0.0088532 
H    -0.3879502   -1.7174287   -1.2489802 
H     0.6229166   -3.1066349    0.4066473 
H     2.1800498   -2.7498741   -0.1105646 
