24
Energy =
C    -0.1842404    2.4621085   -0.8788977 
C     0.3538181    2.7388888    0.3311863 
C     1.2857886    1.9143373    0.8623409 
C     0.2166024    1.3632972   -1.5681339 
C     1.1662934    0.5367651   -1.0468048 
C     1.6922466    0.8146587    0.1784658 
O    -0.0603733    3.8655771    1.0343736 
H     0.5259057    4.6625605    0.8122233 
H    -0.2297731    1.1482803   -2.5358324 
H     2.4314905    0.1516937    0.6201225 
H     1.6947417    2.1377173    1.8415934 
H    -0.9423612    3.1227289   -1.2865259 
C     1.5975583   -0.7024108   -1.8006937 
C     0.7434833   -1.9255661   -1.4033484 
H     2.6745520   -0.9029225   -1.6078761 
H     1.5104546   -0.5180478   -2.8964433 
C     0.8825246   -3.0739482   -2.4014130 
O    -0.2566678   -3.5625234   -3.0266741 
O     2.1140502   -3.6576549   -2.6989572 
H     2.8726696   -3.2174086   -2.2025572 
N     1.0748041   -2.3295751   -0.0233151 
H    -0.3335092   -1.6316243   -1.4491347 
H     0.4189262   -3.0892908    0.2821792 
H     2.0396754   -2.7350465    0.0149804 
