24
Energy =
C    -0.1575140    1.9261901    0.4939693 
C     0.0612647    2.8468341   -0.4725876 
C     0.8657053    2.5510510   -1.5196293 
C     0.4387107    0.7085218    0.4226356 
C     1.2623140    0.4088155   -0.6196407 
C     1.4647440    1.3351568   -1.5980300 
O    -0.5507801    4.0938718   -0.3954751 
H     0.0431813    4.7542452    0.0935037 
H     0.2424074   -0.0326083    1.1939042 
H     2.1014987    1.1094017   -2.4497385 
H     1.0179411    3.2931485   -2.2958262 
H    -0.8206426    2.1689152    1.3176451 
C     1.9104216   -0.9551263   -0.7116364 
C     0.9582423   -1.9940930   -1.3355038 
H     2.2258695   -1.3008319    0.2984188 
H     2.8460989   -0.8890576   -1.3116165 
C     1.7112223   -3.2489784   -1.7520244 
O     1.5162551   -3.7890833   -3.0168741 
O     2.5823443   -3.8766278   -0.8699468 
H     2.9685963   -4.6961996   -1.3211078 
N    -0.1290110   -2.2875502   -0.3815213 
H     0.5294176   -1.5711068   -2.2756080 
H    -0.8379510   -2.9004819   -0.8528855 
H     0.2566050   -2.8522404    0.4143192 
