24
Energy =
C     1.1162982    1.4033826    1.2927846 
C     0.3977200    2.4691026    0.8693373 
C     0.1039099    2.6074796   -0.4445519 
C     1.5336753    0.4673753    0.4053729 
C     1.2291037    0.5883906   -0.9195581 
C     0.5178751    1.6748247   -1.3381787 
O    -0.0267630    3.4311357    1.7820470 
H    -0.9523441    3.2113697    2.1336502 
H     2.1216058   -0.3713633    0.7675039 
H     0.2836567    1.8146390   -2.3901246 
H    -0.4579035    3.4743605   -0.7770888 
H     1.3611853    1.3044384    2.3455483 
C     1.6936772   -0.4614385   -1.9175691 
C     0.7625959   -1.7033958   -1.9996624 
H     2.7235664   -0.7909727   -1.6503312 
H     1.7861289   -0.0123615   -2.9317143 
C     0.7347807   -2.4674203   -0.6570580 
O     1.9608687   -2.8025667   -0.0858745 
O    -0.4176055   -2.8418161    0.0500889 
H    -1.2794299   -2.8688486   -0.4661594 
N    -0.5397349   -1.3674174   -2.6275674 
H     1.2620600   -2.3985862   -2.7081429 
H    -1.3740277   -1.7169961   -2.1186786 
H    -0.6772546   -0.3396003   -2.7397181 
