24
Energy =
C     1.4526331    0.3862606    0.4639992 
C     2.1994846    1.0491735   -0.3855877 
C     1.8831114    2.2408568   -0.9574597 
C     0.1654806    0.7296311    0.4927442 
C    -0.1427551    1.7436759   -0.3425558 
C     0.6688834    1.8772711   -1.4805002 
O     3.3430122    0.4749860   -0.8098717 
H     4.0897156    0.1429362   -0.1238597 
H    -0.1402698    0.8273683    1.6918023 
H    -0.4021647    0.1120956   -3.1893172 
H     2.6015759    2.6561774   -1.6551804 
H     2.1521107   -0.1667186    1.4360498 
C    -0.9848351    0.3728595   -0.4711398 
C    -0.2149450   -1.0987284   -1.0367156 
H    -1.2167535    0.6841860   -1.5252174 
H    -1.8947286    0.0577548   -1.0491015 
C    -1.2784769   -2.1020382   -1.5838245 
O    -2.2516073   -2.8929635   -2.2042391 
O    -0.8675272   -1.0752054   -2.3005706 
H     0.1513970    1.3838585   -3.3708408 
N     1.0557812   -0.6849092   -1.8791815 
H     0.1498498   -1.6921032   -0.2072677 
H     1.9732916   -1.1517007   -1.4511792 
H     1.0611741   -1.2495209   -2.7502000 
