24
Energy =
C    -0.1636404    2.3880766   -1.5618186 
C     0.3311141    2.9343185   -0.4274947 
C     1.2459572    2.2592728    0.3064140 
C     0.2512495    1.1602351   -1.9640173 
C     1.1737173    0.4747875   -1.2310922 
C     1.6651861    1.0301356   -0.0886389 
O    -0.0965642    4.1935382   -0.0190218 
H    -0.8990907    4.1167651    0.5966289 
H    -0.1649994    0.7261326   -2.8712090 
H     2.3948441    0.4957744    0.5147744 
H     1.6382254    2.7121979    1.2106658 
H    -0.8947668    2.9404601   -2.1426514 
C     1.6186076   -0.9076572   -1.6580395 
C     0.7918650   -2.0162253   -0.9854829 
H     2.6926013   -1.0508802   -1.4054515 
H     1.5500752   -1.0232282   -2.7641009 
C    -0.6845004   -1.9226021   -1.3541070 
O    -1.0831606   -1.8245652   -2.6838920 
O    -1.6498257   -1.9352753   -0.3558833 
H    -2.5655950   -1.8851542   -0.7838552 
N     1.3979486   -3.3112801   -1.3596054 
H     0.8325712   -1.8781599    0.1217116 
H     1.8234943   -3.7562546   -0.5127027 
H     0.6752283   -3.9839563   -1.7151316 
