24
Energy =
C     0.0900007    2.5107545   -0.9796775 
C     0.0480275    2.6195036    0.3682152 
C     0.5981459    1.6561501    1.1427218 
C     0.6910210    1.4402622   -1.5590943 
C     1.2564956    0.4717423   -0.7859786 
C     1.2010559    0.5828680    0.5707444 
O    -0.5714509    3.7165652    0.9579180 
H     0.0974415    4.4616782    1.1181786 
H     0.7144812    1.3633976   -2.6435344 
H     1.6301831   -0.1905643    1.2037194 
H     0.5438049    1.7494480    2.2219852 
H    -0.3657817    3.2841671   -1.5891430 
C     1.9065378   -0.7326065   -1.4299267 
C     0.8748843   -1.8151526   -1.8082083 
H     2.6663468   -1.1806843   -0.7486813 
H     2.4631489   -0.4048510   -2.3370237 
C     1.5066667   -2.8796413   -2.6908222 
O     2.8079691   -3.3196222   -2.4676664 
O     0.7667088   -3.4411059   -3.7237877 
H     1.3310492   -4.1407185   -4.1897519 
N     0.3084879   -2.3992035   -0.5776448 
H     0.0663160   -1.3608070   -2.4290284 
H    -0.3665392   -1.7182375   -0.1572372 
H    -0.2645830   -3.2419197   -0.8272567 
