24
Energy =
C     1.1344428    2.2381462    0.5082916 
C    -0.0599584    2.7136704    0.0870490 
C    -0.7061462    2.1096079   -0.9367017 
C     1.6922000    1.1601449   -0.0995915 
C     1.0515426    0.5521092   -1.1370909 
C    -0.1549688    1.0314727   -1.5498627 
O    -0.6282419    3.8180549    0.7139467 
H    -0.3432953    4.6763415    0.2552595 
H     2.6495762    0.7859542    0.2542103 
H    -0.6872786    0.5539554   -2.3689455 
H    -1.6692874    2.4932668   -1.2552714 
H     1.6358480    2.7240625    1.3387569 
C     1.6569818   -0.6603086   -1.8088779 
C     0.9931160   -1.9794448   -1.3456272 
H     2.7545629   -0.7094629   -1.6267736 
H     1.5385063   -0.5504428   -2.9113343 
C     1.4437226   -3.1388806   -2.2153712 
O     2.7585389   -3.5925662   -2.1639758 
O     0.5653705   -3.6992349   -3.1347808 
H     1.0360243   -4.4532450   -3.6185776 
N     1.2776665   -2.2379160    0.0778982 
H    -0.1105914   -1.9172804   -1.4916811 
H     2.3128629   -2.2477189    0.2440768 
H     0.8591829   -1.4845489    0.6720430 
