24
Energy =
C     0.4655156    2.3876961    0.1959858 
C    -0.7373311    2.6445766   -0.3830798 
C    -1.1346226    1.9145088   -1.4494839 
C     1.2640664    1.4069192   -0.2954955 
C     0.8650438    0.6707786   -1.3691506 
C    -0.3421143    0.9301885   -1.9428757 
O    -1.5830674    3.6515325    0.0955486 
H    -1.2280530    4.1371203    0.9120927 
H     2.2196922    1.2089178    0.1844747 
H    -0.6836912    0.3490588   -2.7947274 
H    -2.0978593    2.1257889   -1.8999321 
H     0.7890552    2.9631645    1.0557168 
C     1.7458662   -0.4390253   -1.9054523 
C     1.5702889   -1.7791536   -1.1436995 
H     2.8101839   -0.1160304   -1.8554933 
H     1.5399175   -0.5988095   -2.9876997 
C     1.9757141   -1.6760204    0.3316368 
O     1.0146797   -1.4896270    1.3191701 
O     3.3199956   -1.6887000    0.7099947 
H     3.9345890   -1.7924866   -0.0817805 
N     0.2043696   -2.3042334   -1.3189837 
H     2.2700434   -2.5229709   -1.5860941 
H    -0.4810923   -1.6934431   -0.8119808 
H    -0.0620609   -2.3016420   -2.3310002 
