24
Energy =
C     0.5508557    1.5885418    1.1218597 
C     0.0701493    2.6059549    0.3718912 
C     0.2050459    2.5662425   -0.9805488 
C     1.1673859    0.5321560    0.5341745 
C     1.3127132    0.4908596   -0.8189629 
C     0.8217888    1.5129763   -1.5736320 
O    -0.5570155    3.6771108    1.0155094 
H    -0.9026980    4.3926170    0.3848273 
H     1.5417000   -0.2787506    1.1535437 
H     0.9142001    1.4908938   -2.6573722 
H    -0.1824871    3.3744673   -1.5916079 
H     0.4321508    1.6306646    2.1991291 
C     1.9815239   -0.6977130   -1.4768324 
C     0.9980833   -1.8754152   -1.6825328 
H     2.8341350   -1.0307677   -0.8449339 
H     2.4140241   -0.4069561   -2.4623083 
C    -0.1463589   -1.5073474   -2.6169748 
O    -1.4515436   -1.8608428   -2.2888096 
O     0.0893135   -0.8077757   -3.7980165 
H    -0.7848921   -0.7131963   -4.2974220 
N     1.7146418   -3.0683043   -2.1846276 
H     0.5192443   -2.1109797   -0.7024663 
H     2.7469845   -2.9193090   -2.2783310 
H     1.5753176   -3.8722058   -1.5278155 
