24
Energy =
C     1.0317189    2.3988463    0.3032936 
C     0.1159423    2.9735502   -0.5215329 
C    -0.2352872    2.3493296   -1.6689914 
C     1.5946783    1.2092268   -0.0268087 
C     1.2536518    0.5873326   -1.1896872 
C     0.3252303    1.1597383   -2.0044016 
O    -0.4789933    4.2008816   -0.2137638 
H    -0.1810859    4.5941021    0.6723469 
H     2.3088896    0.7496230    0.6517999 
H     0.0152482    0.6634975   -2.9204849 
H    -0.9778813    2.8102869   -2.3117307 
H     1.3106610    2.8852332    1.2319310 
C     1.8588884   -0.7569341   -1.5451450 
C     1.0939717   -1.9850796   -0.9718566 
H     2.9124565   -0.7896963   -1.1896069 
H     1.9389589   -0.8402273   -2.6524814 
C    -0.1135425   -1.6362339   -0.1036327 
O    -1.3692872   -1.4451131   -0.6701460 
O     0.0490741   -1.4397142    1.2610042 
H    -0.8510123   -1.2018706    1.6590125 
N     0.7502984   -2.8938518   -2.0818739 
H     1.7867931   -2.5216997   -0.2825205 
H     0.3676465   -3.7848395   -1.6838635 
H    -0.0355613   -2.4728035   -2.6360459 
