24
Energy =
C     1.5493979    2.3074337    0.2095000 
C     0.3477053    2.8584474   -0.0758380 
C    -0.4741954    2.2639808   -0.9705204 
C     1.9315879    1.1539891   -0.3955041 
C     1.1101418    0.5476983   -1.2990441 
C    -0.0975548    1.1114396   -1.5810622 
O    -0.0411918    4.0399811    0.5464434 
H    -0.5764544    3.8407266    1.3847567 
H     2.8947638    0.7163791   -0.1426256 
H    -0.7699328    0.6324060   -2.2871943 
H    -1.4336993    2.7192965   -1.1902106 
H     2.2002768    2.7934249    0.9289658 
C     1.5254004   -0.7501027   -1.9677162 
C     0.8203137   -1.9835026   -1.3614513 
H     2.6287615   -0.8836816   -1.8950189 
H     1.2996384   -0.6906499   -3.0543710 
C     1.1222982   -2.1153018    0.1517627 
O     2.4183538   -1.8533903    0.5908323 
O     0.2000276   -2.6089851    1.0861015 
H    -0.7162859   -2.8346660    0.7326486 
N    -0.6147779   -1.9221785   -1.7360979 
H     1.2848489   -2.8924593   -1.8134839 
H    -0.7036336   -2.1067373   -2.7625235 
H    -1.1580944   -2.6948498   -1.2688027 
