24
Energy =
C     0.6628071    2.2207766   -2.0840024 
C     1.4507951    2.8298402   -1.1672143 
C     2.1373497    2.0884937   -0.2668455 
C     0.5509614    0.8696908   -2.0959249 
C     1.2251175    0.1136081   -1.1817657 
C     2.0308762    0.7365709   -0.2741744 
O     1.5666071    4.2176425   -1.1595408 
H     0.8631709    4.6333013   -0.5586027 
H    -0.0762256    0.4011738   -2.8487736 
H     2.5955150    0.1601138    0.4547865 
H     2.7753590    2.5833731    0.4581067 
H     0.1253756    2.8189457   -2.8128265 
C     1.1060209   -1.4029842   -1.1982459 
C    -0.1963970   -1.9527338   -0.5590324 
H     1.9827909   -1.8680635   -0.6942151 
H     1.1536709   -1.7499306   -2.2543642 
C    -0.2228518   -1.8459971    0.9651524 
O     0.5999095   -0.9477975    1.6401209 
O    -1.1110400   -2.6231257    1.7164210 
H    -1.6634434   -3.2518824    1.1456851 
N    -1.3825585   -1.3167505   -1.1468561 
H    -0.2295684   -3.0385071   -0.8083703 
H    -1.4086058   -1.5514793   -2.1661942 
H    -2.2397453   -1.7588310   -0.7375864 
