24
Energy =
C     0.0868638    2.4622501   -0.9283303 
C     0.5515090    2.7218926    0.3153105 
C     1.3564045    1.8298482    0.9372947 
C     0.4205981    1.3041833   -1.5529758 
C     1.2309025    0.4009491   -0.9335836 
C     1.6954750    0.6697641    0.3190113 
O     0.2068333    3.9095687    0.9523221 
H    -0.6300717    3.7863474    1.5113690 
H     0.0368077    1.1061535   -2.5513959 
H     2.3377266   -0.0410061    0.8331014 
H     1.7276363    2.0560006    1.9310459 
H    -0.5516035    3.1893863   -1.4192434 
C     1.5920276   -0.8950661   -1.6267492 
C     0.4580981   -1.9376332   -1.5402894 
H     2.5223905   -1.3272036   -1.1960949 
H     1.8232538   -0.6717746   -2.6944978 
C     0.7218129   -3.0680483   -2.5316641 
O     0.5976931   -2.8174230   -3.8870400 
O     1.1488939   -4.3247461   -2.1298290 
H     1.0750179   -4.3469177   -1.1244326 
N     0.3432079   -2.4220792   -0.1513931 
H    -0.5061919   -1.4765817   -1.8649522 
H     0.0240040   -1.6283371    0.4622217 
H    -0.4420496   -3.1117152   -0.1165571 
