24
Energy =
C    -0.6588637    2.1150651   -1.4657863 
C    -0.6699224    2.4499332   -0.1551556 
C     0.1766799    1.8405234    0.7062015 
C     0.2067558    1.1743942   -1.9221198 
C     1.0688227    0.5617489   -1.0627703 
C     1.0467093    0.9003710    0.2571268 
O    -1.5578088    3.4157995    0.3080503 
H    -1.1327724    4.3358925    0.2812125 
H     0.2001314    0.9130469   -2.9770023 
H     1.7170110    0.4133977    0.9616301 
H     0.1449444    2.1071019    1.7570123 
H    -1.3516534    2.6018507   -2.1442203 
C     2.0273654   -0.4985252   -1.5662216 
C     1.4954618   -1.9425455   -1.3879320 
H     3.0014285   -0.4007651   -1.0346065 
H     2.2587283   -0.3254406   -2.6404116 
C     1.3376669   -2.3215071    0.0788396 
O     2.4551641   -2.7000386    0.8151143 
O     0.1147199   -2.1991441    0.7296522 
H     0.2220365   -2.5105508    1.6853778 
N     0.2599333   -2.1566073   -2.1631398 
H     2.2702314   -2.6385650   -1.7813959 
H    -0.5270182   -1.6095437   -1.7371156 
H     0.3882618   -1.8211094   -3.1456303 
