24
Energy =
C     1.4329272    2.5170546   -0.6401019 
C     2.0386515    2.2176319    0.5314974 
C     2.2567671    0.9161690    0.8608046 
C     1.0408897    1.5290970   -1.4834287 
C     1.2558019    0.2251682   -1.1576466 
C     1.8696973   -0.0756312    0.0191860 
O     2.4231549    3.2651313    1.3763204 
H     2.8668755    2.9682105    2.2383408 
H     0.5523008    1.7888073   -2.4195613 
H     2.0420802   -1.1129023    0.3000758 
H     2.7374045    0.6683964    1.7998970 
H     1.2636671    3.5579212   -0.8954359 
C     0.8083278   -0.8819600   -2.0881066 
C    -0.6014839   -1.4326397   -1.7735885 
H     1.5451191   -1.7167070   -2.0493336 
H     0.8232637   -0.5205998   -3.1416012 
C    -0.7347723   -2.0096676   -0.3594876 
O    -0.5797081   -3.3779500   -0.1819667 
O    -0.9747035   -1.2188611    0.7646522 
H    -0.9762597   -0.2374919    0.5404912 
N    -1.6267535   -0.4289055   -2.1210472 
H    -0.7533943   -2.3146085   -2.4410402 
H    -2.5805412   -0.8164245   -1.9196890 
H    -1.5218772    0.4336158   -1.5397512 
