24
Energy =
C    -1.2520443    1.7789292   -1.2914633 
C    -0.7881229    2.5227752   -0.2615660 
C     0.4688928    2.3077426    0.2104111 
C    -0.4714849    0.8237162   -1.8572043 
C     0.7910687    0.6100523   -1.3940553 
C     1.2548388    1.3561743   -0.3527729 
O    -1.6223669    3.5002925    0.2900182 
H    -1.2181587    3.9918443    1.0803418 
H    -0.8672063    0.2297629   -2.6768200 
H     2.2524654    1.1837039    0.0449011 
H     0.8468465    2.8921837    1.0424682 
H    -2.2595798    1.9560212   -1.6524502 
C     1.6615573   -0.4714163   -2.0038183 
C     1.7255754   -1.7973000   -1.1895292 
H     2.6931581   -0.0707590   -2.1227079 
H     1.3320315   -0.6816724   -3.0466825 
C     0.9581095   -1.7910149    0.1417828 
O     1.6702654   -1.6339825    1.3244333 
O    -0.4337421   -1.8666890    0.2082797 
H    -0.8513612   -1.9235116   -0.7055696 
N     1.3652901   -2.9254322   -2.0699136 
H     2.7899102   -1.9405315   -0.8866540 
H     1.4896807   -3.8279213   -1.5493711 
H     0.3598087   -2.8728848   -2.3539999 
