24
Energy =
C     1.5963107    2.2260261    0.3850463 
C     0.3064268    2.6281918    0.4470139 
C    -0.6054732    2.0940839   -0.4081780 
C     1.9840880    1.2963589   -0.5243977 
C     1.0775053    0.7667226   -1.3905331 
C    -0.2223388    1.1667351   -1.3228250 
O    -0.0540066    3.5884559    1.3975918 
H    -1.0387882    3.8291224    1.4013258 
H     3.0239859    0.9793549   -0.5513308 
H    -0.9621266    0.7349561   -1.9947878 
H    -1.6421940    2.4063194   -0.3559274 
H     2.3159198    2.6535291    1.0760757 
C     1.5032108   -0.2878577   -2.3893736 
C     1.3557468   -1.7114179   -1.8220992 
H     2.5643224   -0.1247155   -2.6826749 
H     0.9111026   -0.2019365   -3.3284595 
C    -0.0962400   -2.0837540   -1.5681142 
O    -0.4430454   -2.7799990   -0.4186752 
O    -1.0875255   -1.7600419   -2.4882592 
H    -1.9593147   -2.1719949   -2.1771092 
N     2.0066866   -2.6494086   -2.7514140 
H     1.8680587   -1.7625274   -0.8315449 
H     1.9903230   -3.6084168   -2.3269260 
H     1.4351729   -2.7144767   -3.6287873 
