24
Energy =
C     0.2370192    2.5158723   -0.7770076 
C     0.7055306    2.5992736    0.4893024 
C     1.4395633    1.5876155    1.0077483 
C     0.5128110    1.4244656   -1.5351443 
C     1.2623219    0.4073723   -1.0240443 
C     1.7166857    0.4910650    0.2569862 
O     0.4216996    3.7199975    1.2633239 
H     1.1467996    4.4213279    1.1596098 
H     0.1169435    1.3627797   -2.5474320 
H     2.3005463   -0.3181624    0.6892447 
H     1.7948083    1.6616379    2.0300292 
H    -0.3678351    3.3244256   -1.1739781 
C     1.5457006   -0.8262529   -1.8528852 
C     0.4477186   -1.8926916   -1.6885312 
H     2.5245219   -1.2655847   -1.5545115 
H     1.6509497   -0.5568568   -2.9287775 
C    -0.8897475   -1.4154873   -2.2650890 
O    -1.0940388   -1.4445108   -3.6393237 
O    -1.8868719   -0.8732118   -1.4540170 
H    -1.6100603   -0.8233397   -0.4847282 
N     0.9193747   -3.1387730   -2.3173533 
H     0.2992460   -2.0883379   -0.6019060 
H     0.2024325   -3.8903598   -2.1745656 
H     0.9877632   -3.0034221   -3.3561771 
