24
Energy =
C     0.1762889    2.5958788   -0.8993745 
C     0.4774011    2.6585352    0.4177149 
C     1.1297803    1.6339632    1.0120771 
C     0.5166484    1.5007384   -1.6259146 
C     1.1635052    0.4572210   -1.0327525 
C     1.4761663    0.5372424    0.2923451 
O     0.1254759    3.7825731    1.1579594 
H    -0.7978863    3.6684868    1.5622976 
H     0.2701052    1.4703035   -2.6837250 
H     1.9975830   -0.2784538    0.7877538 
H     1.3713253    1.6999853    2.0673537 
H    -0.3357746    3.4308750   -1.3662745 
C     1.5392847   -0.7748031   -1.8367510 
C     0.5598781   -1.9636796   -1.6494644 
H     2.5652647   -1.0954731   -1.5475497 
H     1.6014552   -0.5265863   -2.9198460 
C     0.5088042   -2.4424792   -0.1913434 
O    -0.4563345   -1.9436348    0.6772550 
O     1.4845626   -3.2973849    0.3236005 
H     2.1466662   -3.5930094   -0.3783053 
N    -0.7709488   -1.6785071   -2.2388852 
H     0.9783416   -2.8188038   -2.2249242 
H    -1.5353916   -1.7649295   -1.5256275 
H    -0.8453514   -0.7078521   -2.6171645 
