24
Energy =
C    -0.6502942    2.1459290   -0.4641003 
C     0.4462319    2.8641505   -0.1314437 
C     1.6741784    2.4377070   -0.5068294 
C    -0.5235803    1.0042418   -1.1866358 
C     0.7085569    0.5765281   -1.5822221 
C     1.8093365    1.2960197   -1.2287194 
O     0.3118494    4.0362734    0.6059183 
H     0.2121567    4.8373863   -0.0070096 
H    -1.4121430    0.4274870   -1.4354225 
H     2.8028136    0.9611309   -1.5158833 
H     2.5458103    3.0141989   -0.2170134 
H    -1.6274602    2.4873323   -0.1396349 
C     0.8578690   -0.7093581   -2.3676187 
C     1.0725914   -1.9311771   -1.4441047 
H     1.7204235   -0.6178957   -3.0638271 
H    -0.0407837   -0.8812729   -3.0021503 
C    -0.1073555   -2.1321105   -0.5041224 
O    -1.3877869   -2.3287080   -1.0096144 
O     0.0811778   -2.0890553    0.8695074 
H    -0.8058111   -2.2509293    1.3275158 
N     1.3811266   -3.1418117   -2.2461561 
H     1.9398823   -1.7288002   -0.7739684 
H     0.6634141   -3.8907323   -2.0898077 
H     1.3694462   -2.9575221   -3.2760323 
