24
Energy =
C     0.1298420    1.9861087    0.5976087 
C    -0.3620112    2.7267044   -0.4204729 
C    -0.0504279    2.3981630   -1.7021461 
C     0.9391629    0.9245062    0.3483932 
C     1.2599525    0.5932623   -0.9334697 
C     0.7532600    1.3349837   -1.9577393 
O    -1.1848277    3.8169207   -0.1214086 
H    -1.5289603    4.3108708   -0.9377417 
H     1.3046646    0.3247718    1.1804582 
H     0.9810028    1.0773444   -2.9891982 
H    -0.4469310    2.9818033   -2.5259714 
H    -0.1437928    2.2517545    1.6135011 
C     2.1515129   -0.6011569   -1.2230741 
C     1.4287921   -1.9596162   -1.0844876 
H     3.0367256   -0.5727835   -0.5495449 
H     2.5561195   -0.5307794   -2.2576151 
C     1.0724732   -2.2723536    0.3704386 
O    -0.1689583   -1.9107373    0.8767586 
O     2.0156200   -2.8028533    1.2484824 
H     2.8850395   -3.0281707    0.7890979 
N     0.2677530   -1.9996727   -1.9916291 
H     2.1414024   -2.7520795   -1.4075995 
H    -0.1500363   -2.9602629   -1.9608304 
H    -0.4838385   -1.3696813   -1.6174914 
