24
Energy =
C     1.2452184    2.0135096    0.8167231 
C     0.8664774    2.9600704   -0.0714566 
C     0.7665113    2.6428884   -1.3898667 
C     1.5276322    0.7527316    0.4006599 
C     1.4375085    0.4324721   -0.9191306 
C     1.0486422    1.3843573   -1.8118088 
O     0.5857408    4.2474717    0.3973905 
H     0.2976237    4.8955186   -0.3278090 
H     1.8239047    0.0037187    1.1301353 
H     0.9541894    1.1431238   -2.8686191 
H     0.4573500    3.3931033   -2.1095984 
H     1.3153581    2.2801294    1.8654854 
C     1.7288598   -0.9784968   -1.3823562 
C     0.4941439   -1.9013114   -1.2327236 
H     2.5766701   -1.3889418   -0.7905104 
H     2.0623925   -0.9767234   -2.4462039 
C    -0.6784139   -1.4278083   -2.0776447 
O    -0.5203725   -1.1628108   -3.4361984 
O    -1.9239147   -1.2387746   -1.4885761 
H    -2.5784269   -0.9383664   -2.1987204 
N     0.8468789   -3.2978279   -1.5701325 
H     0.1328688   -1.8452590   -0.1780277 
H     1.8611216   -3.4213619   -1.8004770 
H     0.6342810   -3.9255956   -0.7592299 
