24
Energy =
C    -0.0493301    2.4416527   -1.5583590 
C     0.2529544    2.9264490   -0.3322517 
C     1.0134018    2.1963891    0.5160764 
C     0.4208131    1.2282836   -1.9463768 
C     1.2011650    0.4945775   -1.1037130 
C     1.4865885    0.9820021    0.1356936 
O    -0.2277506    4.1714111    0.0598065 
H     0.4307916    4.9035372   -0.1816359 
H     0.1576639    0.8378146   -2.9288960 
H     2.0900655    0.4035721    0.8310838 
H     1.2320142    2.5903128    1.5029548 
H    -0.6784574    3.0285826   -2.2198219 
C     1.7117732   -0.8674840   -1.5234744 
C     0.7337981   -2.0015988   -1.1323899 
H     2.7004016   -1.0524546   -1.0476824 
H     1.8823127   -0.8971684   -2.6240911 
C    -0.6200804   -1.8402260   -1.8163143 
O    -1.7934682   -1.9907708   -1.0886490 
O    -0.6974106   -1.5468351   -3.1749451 
H    -1.6722436   -1.5531152   -3.4509572 
N     1.3484904   -3.3289301   -1.3873205 
H     0.5171753   -1.9266574   -0.0416107 
H     0.7990133   -3.8658138   -2.1026994 
H     2.3179833   -3.2583322   -1.7759178 
