24
Energy =
C     0.9786933    1.6884720    0.9941536 
C    -0.2461455    2.2247580    0.7907430 
C    -0.8844783    2.0283509   -0.3855556 
C     1.5671976    0.9453208    0.0228837 
C     0.9294703    0.7386598   -1.1637694 
C    -0.3021544    1.2871644   -1.3621134 
O    -0.8464984    2.9854022    1.7886789 
H    -1.4359281    2.4038849    2.3745559 
H     2.5476670    0.5114371    0.2053551 
H    -0.8281021    1.1327781   -2.3000533 
H    -1.8625104    2.4717896   -0.5363452 
H     1.4825050    1.8565371    1.9402888 
C     1.5777878   -0.1044912   -2.2435197 
C     1.2696178   -1.6167553   -2.1089578 
H     2.6817714    0.0427537   -2.2150096 
H     1.2584776    0.2494344   -3.2481493 
C     1.7899506   -2.1988370   -0.8008636 
O     3.1169387   -2.6062057   -0.7103087 
O     0.9919612   -2.2460736    0.3379826 
H     1.5226494   -2.6642929    1.0896531 
N    -0.1632539   -1.8918279   -2.3186527 
H     1.8375919   -2.1491514   -2.9050188 
H    -0.7212847   -1.5149657   -1.5158418 
H    -0.4977679   -1.4312482   -3.1962985 
