24
Energy =
C     1.3256482    2.5837307   -0.6804062 
C     0.9633876    2.5847682    0.6224315 
C     0.7662761    1.4028386    1.2652105 
C     1.4984173    1.4134978   -1.3447055 
C     1.3155031    0.2273982   -0.7021983 
C     0.9388340    0.2284089    0.6053249 
O     0.8007014    3.8113122    1.2759259 
H     0.5029187    3.7395614    2.2419091 
H     1.7726167    1.4346803   -2.3971840 
H     0.7698037   -0.7104538    1.1256210 
H     0.4676653    1.4004482    2.3067922 
H     1.4687458    3.5307884   -1.1904487 
C     1.4834263   -1.0788476   -1.4470409 
C     0.1363248   -1.5915072   -2.0090569 
H     1.9197852   -1.8418072   -0.7645246 
H     2.2208719   -0.9549850   -2.2715511 
C    -0.5034475   -0.6166655   -2.9983084 
O    -1.6983634    0.0047701   -2.6564019 
O     0.0966238   -0.2890758   -4.2151597 
H     0.9357270   -0.8229070   -4.3690374 
N     0.3191234   -2.9295345   -2.5980840 
H    -0.5996132   -1.6708140   -1.1740098 
H     1.1089666   -2.9295773   -3.2855624 
H     0.5652584   -3.6152336   -1.8458578 
