24
Energy =
C    -0.6666390    2.2869398   -0.7147345 
C    -0.3579539    2.3973716    0.5977168 
C     0.6235875    1.6325690    1.1285731 
C     0.0121713    1.4159232   -1.5043025 
C     1.0088226    0.6483895   -0.9794236 
C     1.3097969    0.7630950    0.3446971 
O    -1.0558289    3.2931535    1.4019632 
H    -0.5979640    4.1976441    1.4127327 
H    -0.2512522    1.3356471   -2.5553593 
H     2.0919073    0.1510819    0.7871137 
H     0.8491255    1.7169394    2.1859145 
H    -1.4648815    2.8967844   -1.1248967 
C     1.7614808   -0.3339522   -1.8550112 
C     1.2068438   -1.7789850   -1.7806818 
H     2.8363479   -0.3402542   -1.5625970 
H     1.7449215    0.0088782   -2.9128360 
C     1.4411294   -2.4180837   -0.4214383 
O     0.5235071   -2.2698352    0.6145369 
O     2.6302796   -3.0950359   -0.1804273 
H     2.6166693   -3.4546966    0.7656639 
N    -0.2088642   -1.8311785   -2.1948498 
H     1.8010969   -2.4134687   -2.4785656 
H    -0.8117262   -1.3879754   -1.4585730 
H    -0.3507525   -1.3008333   -3.0852559 
