24
Energy =
C     0.6699266    2.0993064   -2.3933080 
C     1.4444343    2.8109858   -1.5436646 
C     2.1395602    2.1674680   -0.5678127 
C     0.5871442    0.7498814   -2.2809425 
C     1.2880214    0.0994139   -1.3114833 
C     2.0589985    0.8177722   -0.4496670 
O     1.5071773    4.1994985   -1.6950046 
H     2.0975905    4.6631103   -1.0125679 
H    -0.0495333    0.1924699   -2.9649492 
H     2.6147231    0.3174336    0.3399713 
H     2.7592218    2.7308817    0.1218397 
H     0.1140202    2.6262580   -3.1611135 
C     1.1791758   -1.4030141   -1.1658500 
C     0.0635880   -1.8065730   -0.1833170 
H     2.1468820   -1.8170543   -0.8038603 
H     0.9945260   -1.8798180   -2.1552287 
C    -1.3210664   -1.4032189   -0.6744538 
O    -2.2454311   -0.8766494    0.2175044 
O    -1.6944151   -1.5956915   -1.9998381 
H    -2.6645101   -1.3237052   -2.1012089 
N     0.1644108   -3.2560622    0.0620102 
H     0.2192691   -1.2629327    0.7785022 
H    -0.5451905   -3.5276320    0.7854407 
H    -0.1040862   -3.7695440   -0.8126522 
