24
Energy =
C     1.8147061    2.1600273    0.0587206 
C     0.5912086    2.7353957    0.0982256 
C    -0.4460677    2.1653761   -0.5563779 
C     2.0093032    1.0185826   -0.6500703 
C     0.9736906    0.4470317   -1.3279433 
C    -0.2585947    1.0246801   -1.2684440 
O     0.3974262    3.9090820    0.8194395 
H     0.5322940    4.7209711    0.2277103 
H     2.9957324    0.5611563   -0.6592322 
H    -1.1012474    0.5612766   -1.7742452 
H    -1.4268147    2.6243109   -0.4934360 
H     2.6335312    2.6152476    0.6060949 
C     1.1851750   -0.8331254   -2.1157497 
C     0.5438009   -2.0623383   -1.4412179 
H     2.2732625   -1.0287769   -2.2484726 
H     0.7662017   -0.7097221   -3.1377350 
C     1.0021704   -2.2036296    0.0076378 
O     0.1435583   -1.9479882    1.0722940 
O     2.3148952   -2.5745309    0.2724389 
H     2.4439145   -2.6097856    1.2757603 
N    -0.9233098   -1.9862268   -1.5998130 
H     0.9260470   -2.9803223   -1.9463489 
H    -1.1813041   -2.3114104   -2.5613186 
H    -1.3837877   -2.6549583   -0.9342284 
