24
Energy =
C     1.0170009    2.2823510    0.2026585 
C     0.4796181    1.8385623    1.3615866 
C     0.2792983    0.5056392    1.5422259 
C     1.3634811    1.4069550   -0.7741292 
C     1.1751993    0.0708500   -0.5942860 
C     0.6217767   -0.3745872    0.5666844 
O     0.1426709    2.7705042    2.3491816 
H    -0.2776063    2.3659052    3.1783387 
H     1.7783027    1.7856450   -1.7060201 
H     0.4469133   -1.4363703    0.7176002 
H    -0.1586257    0.1439888    2.4659898 
H     1.1594085    3.3483989    0.0632727 
C     1.5344512   -0.9046192   -1.6942481 
C     0.3371574   -1.1910312   -2.6222095 
H     1.9002852   -1.8557313   -1.2489702 
H     2.3860027   -0.5122831   -2.2954195 
C    -0.1299299    0.0718450   -3.3435419 
O    -1.3289470    0.6621792   -2.9669050 
O     0.6256537    0.6650564   -4.3536400 
H     1.4406127    0.1088225   -4.5676083 
N     0.7292859   -2.2470190   -3.5713191 
H    -0.5326104   -1.5343427   -2.0117596 
H     0.8258457   -3.1546721   -3.0579861 
H    -0.0439664   -2.3922759   -4.2662819 
