24
Energy =
C     0.5287023    2.2156054    0.5967500 
C     0.0179164    2.8562370   -0.4795745 
C     0.1702896    2.3293548   -1.7165036 
C     1.1886900    1.0400682    0.4406241 
C     1.3449731    0.5020385   -0.8016577 
C     0.8286443    1.1535467   -1.8809008 
O    -0.6579273    4.0610710   -0.3149460 
H    -1.6510754    3.9009164   -0.1871138 
H     1.5883024    0.5340014    1.3156026 
H     0.9427224    0.7403193   -2.8801302 
H    -0.2358390    2.8598388   -2.5710359 
H     0.4069834    2.6523970    1.5823434 
C     2.0663290   -0.8156673   -0.9835224 
C     1.0858151   -2.0040575   -1.1609515 
H     2.7472475   -1.0157879   -0.1261120 
H     2.7302251   -0.7317766   -1.8747320 
C     1.8116191   -3.2886553   -1.5775451 
O     3.0221398   -3.2091294   -2.2561117 
O     1.2442571   -4.5465718   -1.3855151 
H     0.3694913   -4.4718187   -0.8868142 
N     0.2918962   -2.1966372    0.0702338 
H     0.4003145   -1.7879216   -2.0132993 
H     0.9208704   -2.2533987    0.9080873 
H    -0.3519683   -1.3821279    0.2143800 
