24
Energy =
C    -0.7198925    1.9628587   -0.2188955 
C     0.0950931    2.3664436    0.7917413 
C     1.3717559    1.9224887    0.8383767 
C    -0.2529793    1.1242145   -1.1786824 
C     1.0345450    0.6827939   -1.1361962 
C     1.8426728    1.0803050   -0.1158701 
O    -0.3524361    3.2337596    1.7938831 
H    -1.3258303    3.5048967    1.7077685 
H    -0.9197609    0.7965820   -1.9744070 
H     2.8684575    0.7263641   -0.0541889 
H     2.0106998    2.2457314    1.6532725 
H    -1.7475666    2.3061172   -0.2566315 
C     1.5475389   -0.2786615   -2.1858248 
C     1.2737582   -1.7503096   -1.7915293 
H     2.6419476   -0.1280652   -2.3246135 
H     1.0836506   -0.0488258   -3.1709921 
C    -0.2204728   -2.0601339   -1.6679237 
O    -0.7466001   -2.3799214   -0.4218281 
O    -1.0929417   -1.9514865   -2.7536150 
H    -0.5962268   -1.7821154   -3.6139597 
N     1.9478123   -2.6538593   -2.7417872 
H     1.6899288   -1.9339875   -0.7721429 
H     1.7040178   -2.4045678   -3.7296077 
H     2.9862251   -2.5530775   -2.6464780 
