24
Energy =
C     2.0908244    2.3364853    0.2941626 
C     0.9444614    2.4351556    1.0013274 
C    -0.0681377    1.5714279    0.7694796 
C     2.2257607    1.3757472   -0.6540346 
C     1.2144225    0.4927928   -0.8986203 
C     0.0582618    0.6057626   -0.1767164 
O     0.8092258    3.4218422    1.9730426 
H     0.4045311    4.2630441    1.5759773 
H     3.1538675    1.3198399   -1.2185622 
H    -0.7806980   -0.0580235   -0.3320585 
H    -0.9804654    1.6618181    1.3497148 
H     2.8988732    3.0326830    0.4929001 
C     1.4296400   -0.5443238   -1.9965777 
C     0.4125254   -1.7099382   -2.0981267 
H     2.4392919   -0.9866377   -1.8396313 
H     1.4823602   -0.0155767   -2.9742935 
C    -0.9042845   -1.2676763   -2.7383936 
O    -2.0684878   -1.2886968   -1.9806647 
O    -0.9780992   -0.8622877   -4.0691369 
H    -0.0940596   -0.9965571   -4.5382783 
N     1.0362312   -2.7952955   -2.8765167 
H     0.1679230   -2.0877725   -1.0767483 
H     1.7915887   -3.2418574   -2.3040323 
H     0.3294030   -3.5519705   -3.0501272 
