24
Energy =
C     0.2382365    2.1859580    0.3856430 
C    -0.1139044    2.7846124   -0.7751516 
C     0.2136598    2.2144010   -1.9576765 
C     0.9276949    1.0172457    0.3682805 
C     1.2690856    0.4414437   -0.8186207 
C     0.9033482    1.0454418   -1.9835241 
O    -0.8225999    3.9815551   -0.7525090 
H    -0.1890632    4.7733221   -0.7631287 
H     1.1982769    0.5461571    1.3096581 
H     1.1568506    0.5960933   -2.9409206 
H    -0.0868420    2.6993280   -2.8802825 
H    -0.0410462    2.6468101    1.3271579 
C     2.0194724   -0.8712493   -0.8475525 
C     1.0857596   -2.0708821   -1.1361760 
H     2.5638927   -1.0388013    0.1094572 
H     2.8070070   -0.8155247   -1.6346024 
C     1.8975068   -3.3289683   -1.3842795 
O     2.2503523   -3.6774446   -2.6803516 
O     2.3735039   -4.0912166   -0.3261494 
H     1.6408110   -4.7250694   -0.0426205 
N     0.1199930   -2.2643800   -0.0389889 
H     0.5289158   -1.8897098   -2.0850776 
H     0.6194209   -2.2817107    0.8824034 
H    -0.5518661   -1.4612737   -0.0173998 
