13
Energy = -323.6175643
C    -1.2287382    0.3092436   -0.5299640 
C    -0.0026771   -0.5151498   -0.0936075 
H    -1.4789205    1.0494947    0.2325798 
H    -2.0847299   -0.3555729   -0.6592131 
H    -1.0499786    0.8220813   -1.4765499 
C     1.1714202    0.4290452    0.0691476 
N    -0.1704185   -1.2568508    1.1471567 
H     0.2472069   -1.2118604   -0.8981893 
H    -0.0269694   -0.6399795    1.9392021 
H    -1.1010691   -1.6499733    1.2089908 
O     1.5401843    0.9014729    1.1128251 
O     1.7413280    0.7363151   -1.1160792 
H     2.4433618    1.3817339   -0.9362991 
