13
Energy = -323.6162272
C    -1.2855645    0.8635553    0.1736106 
C    -0.2023971   -0.0886678   -0.3065516 
H    -1.1314666    1.8627098   -0.2305275 
H    -1.2806682    0.9229403    1.2617149 
H    -2.2641155    0.5045642   -0.1514568 
C     1.1820234    0.4232191    0.0599119 
N    -0.3964926   -1.4193826    0.2731206 
H    -0.2078412   -0.1003402   -1.4105799 
H    -1.2966602   -1.7901667   -0.0065480 
H     0.3193683   -2.0613280   -0.0441687 
O     1.4482239    1.5274943    0.4513265 
O     2.1316647   -0.5196675   -0.1559650 
H     2.9839258   -0.1249303    0.0861131 
