13
Energy = -323.6098337
C    -1.2185519    0.5520196    0.0744757 
C    -0.0168729   -0.3763073   -0.1332802 
H    -1.1016177    1.1299155    0.9913518 
H    -2.1232876   -0.0490387    0.1691445 
H    -1.3827359    1.2339135   -0.7659890 
C     1.3249278    0.3592559   -0.1714342 
N     0.0351490   -1.3689962    0.9269030 
H    -0.1033968   -0.8266462   -1.1376338 
H    -0.5551892   -2.1634950    0.7207639 
H     0.9886937   -1.6857919    1.0580915 
O     2.3238043   -0.0567856    0.3429252 
O     1.3560721    1.5121883   -0.8787680 
H     0.4730051    1.7397681   -1.1965503 
