27
Energy =
C    -0.6970570    3.7586251    1.0230030 
C    -1.1453220    2.5173756    0.6804413 
C    -0.2636261    1.6419752    0.1530976 
C     0.6154849    4.0936445    0.8341776 
C     1.4871814    3.1902623    0.3005979 
C     1.0178310    1.9618084   -0.0354937 
N    -0.5217218    0.3069943   -0.2596028 
C     1.6608921    0.9091469   -0.5654722 
C     0.7806295   -0.0986753   -0.7021018 
H    -1.4197793   -0.2290344   -0.2568019 
C     3.1361660    0.8176959   -0.9046546 
C     4.0525514    0.3998586    0.2822846 
H     3.4710725    1.7878531   -1.3335530 
H     3.2637997    0.0851546   -1.7322285 
C     3.3151889    0.0762370    1.5822788 
N     5.0998540    1.4229728    0.4587903 
H     4.5469246   -0.5595412   -0.0008034 
H     4.6712589    2.2947720    0.8515311 
H     5.8031198    1.0855503    1.1588077 
H    -1.3846688    4.4820030    1.4542760 
H    -2.1813848    2.2326352    0.8302094 
H     0.9682279    5.0822137    1.1171446 
H     2.5301304    3.4540380    0.1601510 
H     1.0246178   -1.0957163   -1.0617996 
O     2.9775261   -1.2381020    1.8721698 
O     2.9331567    1.0810824    2.4633565 
H     3.7325998    1.3575257    3.0120354 
