27
Energy =
C    -0.8435401    3.4953618    1.2009266 
C    -1.1878003    2.2248125    0.8461029 
C    -0.2548675    1.4518058    0.2512890 
C     0.4189360    3.9609291    0.9564004 
C     1.3444294    3.1592881    0.3551704 
C     0.9789218    1.8986340    0.0089987 
N    -0.4054822    0.1081804   -0.1852648 
C     1.6917577    0.9252095   -0.5806352 
C     0.9050636   -0.1593203   -0.7021009 
H    -1.2467914   -0.5124206   -0.1536764 
C     3.1520665    0.9795456   -0.9891636 
C     4.1564182    0.5905537    0.1428087 
H     3.3750010    1.9899053   -1.3953479 
H     3.2997198    0.2883076   -1.8487728 
C     3.5103673    0.0793802    1.4261132 
N     5.0799596    1.7067591    0.4121106 
H     4.7603633   -0.2768855   -0.2128310 
H     5.5914426    1.9614319   -0.4657032 
H     4.5343578    2.5467269    0.7194334 
H    -1.5741882    4.1382490    1.6857135 
H    -2.1826265    1.8372505    1.0387919 
H     0.6887592    4.9728494    1.2482125 
H     2.3466570    3.5286181    0.1678825 
H     1.2253156   -1.1208405   -1.0970968 
O     3.3118159   -1.2834570    1.6051908 
O     3.0604901    0.9624233    2.4000554 
H     3.8419113    1.1989432    2.9932746 
