27
Energy =
C    -0.4400171    2.2502306    1.9656381 
C    -0.6722438    0.9750491    1.5424670 
C     0.1273797    0.4641993    0.5829087 
C     0.5824032    2.9804674    1.4251803 
C     1.3780133    2.4408401    0.4575319 
C     1.1252830    1.1706073    0.0493101 
N     0.0653594   -0.8366749    0.0156240 
C     1.7569699    0.4185651   -0.8657146 
C     1.1580790   -0.7847051   -0.9108469 
H    -0.5959901   -1.6207473    0.2200362 
C     2.9639050    0.8114225   -1.6936434 
C     4.3637646    0.5347904   -1.0394242 
H     2.8903050    1.8909288   -1.9475472 
H     2.8708638    0.2987886   -2.6777621 
C     5.2770262   -0.3395648   -1.9135055 
N     4.2541910    0.0073469    0.3356231 
H     4.9063413    1.5059679   -0.9866425 
H     3.7471447    0.6863284    0.9504762 
H     3.7343861   -0.9028619    0.3398263 
H    -1.0691599    2.6870725    2.7373445 
H    -1.4763019    0.3807434    1.9633055 
H     0.7629957    3.9960471    1.7697727 
H     2.1935347    3.0195932    0.0340771 
H     1.4641707   -1.6110053   -1.5490721 
O     5.0983522   -0.3687693   -3.2923948 
O     6.3624215   -1.0353423   -1.3806760 
H     6.4439165   -0.8919493   -0.3848519 
