27
Energy =
C    -1.6394871    1.8547675   -0.9133445 
C    -1.2543638    0.5473179   -0.9008074 
C     0.0386163    0.2637450   -0.6385704 
C    -0.7276839    2.8437714   -0.6687973 
C     0.5742840    2.5316029   -0.4087621 
C     0.9351597    1.2214928   -0.3963044 
N     0.6414712   -1.0195479   -0.5941490 
C     2.1378165    0.6647462   -0.1747190 
C     2.0027180   -0.6715521   -0.2991577 
H     0.2110654   -1.9619692   -0.7353212 
C     3.4244726    1.4340952    0.0956619 
C     4.5893899    0.6101537    0.7003938 
H     3.1958955    2.2586555    0.8045331 
H     3.7564342    1.9022779   -0.8579965 
C     5.3255352   -0.2436883   -0.3286212 
N     4.1014496   -0.1879065    1.8388034 
H     5.3557414    1.3327455    1.0652592 
H     4.9141005   -0.6885701    2.2738341 
H     3.7329035    0.4592728    2.5751993 
H    -2.6748373    2.1116220   -1.1220960 
H    -1.9635845   -0.2492266   -1.0983154 
H    -1.0415629    3.8845838   -0.6843664 
H     1.2965685    3.3203321   -0.2212660 
H     2.8089546   -1.3943233   -0.2013826 
O     6.5550329   -0.8054205   -0.0029807 
O     4.7984634   -0.4670295   -1.5971473 
H     5.4437750   -1.0421492   -2.1237277 
