27
Energy =
C    -0.8182941    2.8758258    0.5998018 
C    -0.9350202    1.5257877    0.4593663 
C     0.1339369    0.8317254    0.0142094 
C     0.3597238    3.4986055    0.2981615 
C     1.4269745    2.7752304   -0.1458682 
C     1.2861683    1.4290941   -0.2827635 
N     0.2135724   -0.5721242   -0.1739536 
C     2.1702694    0.5037228   -0.6854663 
C     1.5725039   -0.7591316   -0.6251514 
H    -0.5298086   -1.2943923   -0.0386186 
C     3.6453168    0.7390989   -1.0293199 
C     4.5976965   -0.0579533   -0.0837369 
H     3.9157632    1.8130105   -1.0166918 
H     3.8061287    0.3885243   -2.0723245 
C     4.1377764   -1.5084775    0.0296548 
N     4.6753140    0.5908999    1.2349330 
H     5.6139644   -0.0747484   -0.5352569 
H     5.0241453    1.5709912    1.1213199 
H     3.7177265    0.6457361    1.6580428 
H    -1.6642192    3.4582765    0.9561015 
H    -1.8609200    1.0148600    0.7010806 
H     0.4470038    4.5761919    0.4146115 
H     2.3570075    3.2811448   -0.3797724 
H     1.8756626   -2.0149230   -0.9550428 
O     2.9122857   -1.7972128   -0.5677240 
O     4.8432045   -2.4983031    0.7024467 
H     5.6554778   -2.1021788    1.1532973 
