27
Energy =
C    -1.4609476    1.5661031   -0.7300861 
C    -1.1188295    0.4150510   -0.0839041 
C     0.1914451    0.1545317    0.1075441 
C    -0.4910409    2.4263912   -1.1662854 
C     0.8268252    2.1408085   -0.9594764 
C     1.1429282    0.9881387   -0.3152220 
N     0.7576404   -0.9734745    0.7600203 
C     2.3441881    0.4874445    0.0116575 
C     2.1568182   -0.6765085    0.6574405 
H     0.2819690   -1.7949003    1.1989166 
C     3.6904016    1.1259385   -0.2440910 
C     4.0010661    2.2438664    0.7732190 
H     3.7061632    1.5282239   -1.2815135 
H     4.4934109    0.3548433   -0.1929944 
C     5.1810441    3.0838646    0.3074931 
N     4.2536667    1.6404383    2.0936469 
H     3.1374867    2.9472885    0.8360483 
H     4.5431600    2.3907950    2.7656291 
H     3.3566849    1.2539915    2.4709525 
H    -2.5091340    1.8008380   -0.8980749 
H    -1.8752165   -0.2769863    0.2704322 
H    -0.7718653    3.3429594   -1.6800630 
H     1.5973965    2.8244470   -1.3046159 
H     2.9513981   -1.2995603    1.0629399 
O     6.4050818    2.4939464    0.0046665 
O     5.0329624    4.4599137    0.1674419 
H     5.9109921    4.8584703   -0.1399754 
