27
 energy: -5.225536083741 gnorm: 0.000962399887 xtb: 6.4.0 (d4b70c2)
C        -1.46606455314392    2.54373621322311   -0.13178323985575
C        -1.33612781304276    1.18557701829130   -0.23143413909731
C        -0.04777791803517    0.63679060113316   -0.26327285334731
C        -0.33929004783278    3.37922937549007   -0.06245086320444
C         0.92734144396641    2.86444803936886   -0.09192164245740
C         1.08600706400808    1.47138289277196   -0.19283577578874
N         0.40009036538564   -0.66907700537327   -0.36667805483120
C         2.23446238146880    0.62600615110915   -0.24798245563193
C         1.77237485441641   -0.65985681929759   -0.36237386802250
H        -0.20317552915347   -1.49025531121479   -0.44209249581759
C         3.66404995622647    1.05402258776520   -0.25463967120036
C         4.61173754741604    0.03495281413485    0.38363342326912
H         3.76158463375772    2.01347380627453    0.26336885090282
H         3.98377757590040    1.23337856017413   -1.28530436683088
C         6.01155915329017    0.59644577891687    0.45511781085719
N         4.63900778792529   -1.22396991320742   -0.34632878773016
H         4.26803675803337   -0.16979025727371    1.40933802753064
H         5.01346976252585   -1.02839364490138   -1.26341134488926
H         5.30233355290400   -1.84602090114323    0.09447046647949
H        -2.44964421752473    2.98290575362513   -0.10652657781202
H        -2.19337241408148    0.53890397620848   -0.28657909862260
H        -0.47768852550115    4.44487813691129    0.01526430522818
H         1.79253872904677    3.50105575062818   -0.04025951931589
H         2.40262995826041   -1.52806777938699   -0.43848702465772
O         6.71145012287160    0.54582908366521   -0.53049700450803
O         6.39428087654234    1.14341575486299    1.62935230650162
H         7.31065493205599    1.46059684057725    1.51331418802482
