27
Energy =
C    -1.3103224    3.0044687   -0.4907027 
C    -1.2337070    1.6676598   -0.7458288 
C    -0.0172569    1.0833477   -0.7369096 
C    -0.1758686    3.7222389   -0.2309941 
C     1.0429153    3.1075539   -0.2290787 
C     1.0958251    1.7763192   -0.4877665 
N     0.2762170   -0.2882500   -0.9583351 
C     2.1509847    0.9453646   -0.5352136 
C     1.7007761   -0.2934672   -0.8006636 
H    -0.3722098   -1.0789875   -1.1791064 
C     3.6033107    1.2885526   -0.2788597 
C     3.9357762    1.2894135    1.2487686 
H     3.8371737    2.2720604   -0.7427100 
H     4.2287393    0.5664039   -0.8449980 
C     4.1452855    2.7089157    1.7662478 
N     5.0620211    0.3772982    1.5750499 
H     3.0529183    0.9339497    1.8313478 
H     5.4369864   -0.1448775    0.7519970 
H     5.8742134    0.8973486    1.9884010 
H    -2.2786962    3.4994471   -0.4857331 
H    -2.1247334    1.0816574   -0.9459282 
H    -0.2467234    4.7864042   -0.0144765 
H     1.9418856    3.6752049   -0.0080478 
H     2.3236507   -1.1829013   -0.8690988 
O     3.0464278    3.4750604    2.1271387 
O     5.3948073    3.3123193    1.7345147 
H     5.5784482    3.6355826    0.7977810 
