27
Energy =
C    -1.0368554    3.4246733    0.0443276 
C    -1.1795082    2.0693816    0.0671798 
C    -0.0676436    1.3075724   -0.0010840 
C     0.2071377    3.9848684   -0.0450879 
C     1.3162459    3.1939140   -0.1126278 
C     1.1511691    1.8449513   -0.0898387 
N    -0.0000271   -0.1109650    0.0096780 
C     2.0631689    0.8582952   -0.1420820 
C     1.4146934   -0.3187200   -0.0858711 
H    -0.7737233   -0.8119712    0.0721321 
C     3.5674026    0.9974336   -0.2560611 
C     4.0876743    0.6075044   -1.6638149 
H     4.0330888    0.3345455    0.5084537 
H     3.9031404    2.0260769   -0.0036095 
C     5.6145027    0.4741135   -1.6867495 
N     3.5834346    1.5366716   -2.7043234 
H     3.7073633   -0.4120214   -1.8987346 
H     3.0233210    2.3223577   -2.3008638 
H     4.3703019    1.9934249   -3.2272404 
H    -1.9160078    4.0621877    0.0979128 
H    -2.1589119    1.6084187    0.1383528 
H     0.3134460    5.0670388   -0.0619589 
H     2.2994604    3.6471771   -0.1829266 
H     1.8916141   -1.2960267   -0.1109086 
O     6.3865402    1.0758262   -0.6994506 
O     6.2592791   -0.2121696   -2.7146009 
H     5.6056162   -0.5454016   -3.4088496 
