27
Energy =
C    -1.3489543    2.5994244    0.2061005 
C    -1.2220376    1.2437198    0.1340949 
C     0.0099639    0.7260781   -0.0546633 
C    -0.2478960    3.4021594    0.0875147 
C     0.9867723    2.8544527   -0.1030372 
C     1.0887435    1.5019003   -0.1693945 
N     0.3590792   -0.6471271   -0.1573893 
C     2.1713732    0.7281486   -0.3465802 
C     1.7774505   -0.5575610   -0.3450041 
H    -0.2548974   -1.4922710   -0.1074336 
C     3.6016302    1.1962205   -0.4989907 
C     4.2152457    1.6355699    0.8537930 
H     3.6238262    2.0420545   -1.2223274 
H     4.2319678    0.3934647   -0.9464047 
C     5.5115909    2.3942440    0.6355420 
N     4.4359112    0.4780364    1.7478527 
H     3.5333291    2.3712150    1.3419139 
H     3.9334815    0.6331356    2.6533225 
H     4.0703084   -0.4174598    1.3506157 
H    -2.3296719    3.0435646    0.3574384 
H    -2.0849110    0.5927674    0.2252070 
H    -0.3572328    4.4827186    0.1444708 
H     1.8596910    3.4934931   -0.2004183 
H     2.4357048   -1.4149949   -0.4673176 
O     6.5219996    1.8673749   -0.1631959 
O     5.6835292    3.6514833    1.2010385 
H     6.6089527    3.9841770    0.9630439 
