27
Energy =
C    -1.2234512    2.5904964   -0.8058571 
C    -1.1884505    1.2449803   -0.5890413 
C     0.0068339    0.6671483   -0.3461700 
C    -0.0690790    3.3231406   -0.7777785 
C     1.1268772    2.7153460   -0.5306687 
C     1.1374823    1.3748016   -0.3145257 
N     0.2615839   -0.7097740   -0.1061221 
C     2.1653208    0.5497811   -0.0558903 
C     1.6846501   -0.7003344    0.0650185 
H    -0.4098815   -1.5106545   -0.0663771 
C     3.6298961    0.9161069    0.0386228 
C     4.3251549    0.8260921   -1.3317180 
H     4.1244965    0.2273860    0.7614112 
H     3.7492225    1.9410534    0.4507673 
C     5.8456805    0.8529535   -1.1663472 
N     3.7823039    1.8992223   -2.1954427 
H     4.1110731   -0.1741154   -1.7769519 
H     4.5360724    2.5152157   -2.5846241 
H     3.3000656    1.4702439   -3.0194654 
H    -2.1725087    3.0818883   -1.0049769 
H    -2.0941010    0.6484580   -0.6115567 
H    -0.1034868    4.3950961   -0.9567411 
H     2.0438475    3.2968396   -0.5185236 
H     2.2866619   -1.5865351    0.2557746 
O     6.6504437    1.7295096   -1.8868244 
O     6.4541103   -0.0540764   -0.3083049 
H     7.4556908    0.0914217   -0.3435544 
