27
Energy =
C    -1.2151027    0.9300282   -1.1766815 
C    -0.9985879    0.2883315    0.0065050 
C     0.2242131    0.3812378    0.5699563 
C    -0.2090712    1.6430025   -1.7680023 
C     1.0186690    1.7209957   -1.1790177 
C     1.2102483    1.0773178    0.0015441 
N     0.6581682   -0.2168769    1.7831693 
C     2.3078899    0.9935522    0.7709262 
C     2.0205924    0.2248665    1.8360546 
H     0.1250511   -0.8173719    2.4531764 
C     3.6625856    1.6084167    0.4988260 
C     4.6033035    0.6415845   -0.2467538 
H     4.1222906    1.9067747    1.4674715 
H     3.5626209    2.5443868   -0.0938867 
C     6.0307986    1.1718047   -0.2580531 
N     4.0959508    0.4304381   -1.6146939 
H     4.6489828   -0.3299143    0.2991915 
H     4.8243505   -0.0746504   -2.1766883 
H     3.2774689   -0.2210978   -1.5756219 
H    -2.1903304    0.8715195   -1.6534364 
H    -1.7841645   -0.2852565    0.4864921 
H    -0.3870088    2.1476247   -2.7146713 
H     1.8189101    2.2780775   -1.6576896 
H     2.7204227   -0.0343567    2.6277844 
O     7.0911263    0.2934979   -0.4443407 
O     6.2979837    2.5267634   -0.0959717 
H     7.2976256    2.6665053   -0.1695419 
