27
Energy =
C    -1.5549963    2.4161029    0.0031879 
C    -1.4196730    1.0604715   -0.0077561 
C    -0.1738539    0.5416659   -0.0060656 
C    -0.4482708    3.2175570    0.0156044 
C     0.7998024    2.6678993    0.0170343 
C     0.9136197    1.3118333    0.0056397 
N     0.1786439   -0.8284152   -0.0151481 
C     2.0236709    0.5443813    0.0048377 
C     1.6128230   -0.7475339   -0.0073663 
H    -0.4436540   -1.6697629   -0.0210226 
C     3.4389119    1.1400381    0.0248654 
C     4.7518741    0.2766166   -0.0036919 
H     3.4725030    1.8098071    0.9118083 
H     3.4953145    1.8261196   -0.8496033 
C     4.6043535   -1.2161807   -0.1827442 
N     5.5913612    0.5866753    1.1676139 
H     5.3279375    0.5678664   -0.9131887 
H     5.7510895    1.6179262    1.2427553 
H     5.1025770    0.2590554    2.0363193 
H    -2.5469092    2.8610413    0.0015366 
H    -2.2874192    0.4095760   -0.0180418 
H    -0.5636008    4.2987876    0.0237430 
H     1.6744164    3.3112921    0.0262832 
H     2.2312187   -1.6348748   -0.0184621 
O     4.4058990   -1.7477621   -1.4484746 
O     4.5309470   -2.0692375    0.9100695 
H     4.5333341   -3.0217576    0.5673207 
