27
Energy =
C    -1.4766437    1.4745458   -1.2361344 
C    -0.7384951    0.3440808   -1.4236009 
C     0.5239151    0.3193814   -0.9453741 
C    -0.9394390    2.5475855   -0.5808487 
C     0.3382820    2.4969939   -0.1083898 
C     1.0535480    1.3613776   -0.3048733 
N     1.4590722   -0.7445012   -1.0358170 
C     2.3120009    1.0677584    0.0543759 
C     2.5922286   -0.1778658   -0.3647093 
H     1.3517347   -1.6885893   -1.4745858 
C     3.2709741    1.9791752    0.7845888 
C     3.8378990    3.0875070   -0.1330882 
H     4.1046059    1.3909809    1.2301779 
H     2.7270856    2.4333973    1.6413795 
C     5.0206380    2.5723027   -0.9553765 
N     4.2187380    4.2385901    0.6980414 
H     3.0502453    3.4249322   -0.8460965 
H     4.6809821    4.9602659    0.0928079 
H     3.3445800    4.6826696    1.0654847 
H    -2.4953705    1.5236320   -1.6101460 
H    -1.1515344   -0.5144621   -1.9438868 
H    -1.5327009    3.4451717   -0.4368894 
H     0.7632437    3.3528608    0.4081066 
H     3.5508420   -0.6811274   -0.2400719 
O     6.0771475    3.4154297   -1.2784503 
O     5.0190835    1.2891694   -1.4943632 
H     4.3861033    1.2616511   -2.2813223 
