27
Energy =
C    -1.1233851    2.8394158   -1.1540971 
C    -1.1939872    1.4876263   -0.9919462 
C    -0.0738172    0.8272638   -0.6304468 
C     0.0591391    3.4964900   -0.9540548 
C     1.1777383    2.8060990   -0.5894879 
C     1.0839490    1.4606565   -0.4320047 
N     0.0667336   -0.5703945   -0.4175236 
C     2.0216855    0.5641010   -0.0844805 
C     1.4560173   -0.6562477   -0.0740480 
H    -0.6502508   -1.3285179   -0.4908405 
C     3.4837681    0.8319814    0.1996140 
C     4.3326776    0.7242405   -1.0841882 
H     3.8413882    0.0906432    0.9507100 
H     3.6026728    1.8325967    0.6668922 
C     5.8246174    0.6008958   -0.7786876 
N     4.0273758    1.8604567   -1.9731990 
H     4.0642906   -0.2271708   -1.6045307 
H     4.4305361    2.7442957   -1.5824316 
H     4.4949857    1.7062595   -2.8992974 
H    -2.0102790    3.3963271   -1.4462615 
H    -2.1230814    0.9503879   -1.1495873 
H     0.1092851    4.5742977   -1.0890380 
H     2.1169366    3.3277071   -0.4370158 
H     1.9775628   -1.5841362    0.1504642 
O     6.5191562   -0.5034994   -1.2532442 
O     6.5165693    1.5631456   -0.0431796 
H     5.9139791    2.3101299    0.2638223 
