27
Energy =
C    -1.2169080    2.9951635    0.2023385 
C    -1.1692128    1.6406632    0.3458647 
C     0.0076901    1.0155538    0.1331198 
C    -0.0928627    3.6909588   -0.1462190 
C     1.0855127    3.0354444   -0.3582147 
C     1.1096893    1.6850649   -0.2113242 
N     0.2708761   -0.3756999    0.2440121 
C     2.1257999    0.8146977   -0.3506539 
C     1.6660866   -0.4191640   -0.0791088 
H    -0.3806544   -1.1551510    0.4940206 
C     3.5632780    1.1287758   -0.7063295 
C     4.4036505    1.4783598    0.5353075 
H     3.6110335    1.9599616   -1.4443121 
H     4.0180547    0.2455729   -1.2086338 
C     3.9550188    2.8048172    1.1476375 
N     5.8213599    1.5040512    0.1375300 
H     4.2662118    0.6812221    1.3006485 
H     5.9811145    2.3284856   -0.4938984 
H     6.4063669    1.6923762    0.9864751 
H    -2.1509932    3.5247423    0.3746757 
H    -2.0503573    1.0745668    0.6293112 
H    -0.1357160    4.7740544   -0.2435178 
H     1.9820473    3.5941377   -0.6169960 
H     2.2644344   -1.3278354   -0.0953993 
O     4.1527273    3.9812227    0.4369756 
O     3.2411842    2.8675700    2.3415574 
H     3.1050599    1.9626281    2.7637946 
