27
Energy =
C    -1.2136376    2.8905123   -0.6958889 
C    -1.2170343    1.5516992   -0.4407974 
C    -0.0317125    0.9299530   -0.2690557 
C    -0.0321520    3.5741000   -0.7727025 
C     1.1535967    2.9236328   -0.5952941 
C     1.1273336    1.5881489   -0.3432247 
N     0.1808975   -0.4475377    0.0028199 
C     2.1365199    0.7244688   -0.1344699 
C     1.6111577   -0.4959790    0.0740604 
H    -0.5182735   -1.2166487    0.1188725 
C     3.6216321    1.0212958   -0.1410499 
C     4.3165358    0.4599178   -1.4040958 
H     4.0676712    0.5539715    0.7676570 
H     3.8206358    2.1101363   -0.0524773 
C     5.8357801    0.5044560   -1.2403822 
N     3.8657009    1.1673699   -2.6262815 
H     4.0819286   -0.6295438   -1.4864661 
H     3.3661861    0.4927711   -3.2549353 
H     3.1770378    1.9297476   -2.4244284 
H    -2.1545488    3.4163557   -0.8382464 
H    -2.1453842    0.9943188   -0.3761327 
H    -0.0380812    4.6425137   -0.9758663 
H     2.0863970    3.4740353   -0.6574520 
H     2.1865367   -1.3991501    0.2671457 
O     6.4596996   -0.5144531   -0.5320309 
O     6.6075445    1.5741461   -1.6895937 
H     6.0440882    2.2091771   -2.2336197 
