27
 energy: -5.222549197163 gnorm: 0.000783221530 xtb: 6.4.0 (d4b70c2)
C        -1.50691358047034    2.54726131672612   -0.57972138520640
C        -1.35546874653161    1.25537954729744   -0.15614351286777
C        -0.06009801853199    0.77167630483601    0.06693396988645
C        -0.39460677691680    3.37888641555676   -0.78879092825807
C         0.87834586771303    2.92561402954823   -0.57789466507105
C         1.05937092298424    1.60077854779828   -0.14400114008191
N         0.40703215990369   -0.45567385627428    0.50189707474925
C         2.22013869150790    0.83140533586939    0.16853194780783
C         1.77597492431963   -0.40621058173318    0.56554213113063
H        -0.18308123633939   -1.25573245701552    0.73813205668156
C         3.63393656025958    1.31788082024122    0.12056143956084
C         4.68141086625850    0.21115247812277   -0.03332107952342
H         3.85645055359474    1.87693998700331    1.03427607997806
H         3.74024565616479    2.03061905472603   -0.70283637043364
C         4.75216159511111   -0.63901017374659    1.21733376040079
N         5.99857491976467    0.75793146841386   -0.33402393706051
H         4.37588494553531   -0.45073770251712   -0.85984111092246
H         6.69796947356751    0.02637267371064   -0.32016697095262
H         6.01705111087005    1.20207732400597   -1.24415742603046
H        -2.49611276990503    2.93643935332575   -0.75546591746932
H        -2.20110846998309    0.61222285882918    0.00906763926962
H        -0.54990177116567    4.39213119496423   -1.12034827558184
H         1.73213646934775    3.56065566540812   -0.73358988095243
H         2.40524250385442   -1.22105025118617    0.88454535202356
O         4.30179736048361   -1.76389685505529    1.19650113189504
O         5.30063723159412   -0.07596755173200    2.31339077872370
H         5.27220974238555   -0.74505814875367    3.02558426475562
