27
 energy: -5.221389157726 gnorm: 0.000665749112 xtb: 6.4.0 (d4b70c2)
C        -1.46310904691333    2.51677951910690   -0.47537470153113
C        -1.30324767950516    1.21304718919850   -0.09326914331079
C        -0.00385721820353    0.72617397242681    0.09691579431828
C        -0.35547008906066    3.35712065124204   -0.67426607757001
C         0.92122596152985    2.90097055291018   -0.49455757970159
C         1.11084549332365    1.56404465810354   -0.10358787476994
N         0.47147086643177   -0.51314702976755    0.48717000396426
C         2.27668059399820    0.78806102684553    0.17027416217716
C         1.84105168867506   -0.46188626015148    0.53665457288924
H        -0.11527121218115   -1.31603810391246    0.72228065531612
C         3.68904429164536    1.27521112378812    0.11187528337454
C         4.73558876415721    0.16429322908902   -0.01044528257516
H         3.91089784247103    1.85450394715940    1.01339924882313
H         3.79669574041283    1.96729968589134   -0.72874942638954
C         4.80719628616657   -0.64283599112787    1.26645550976134
N         6.05238419939906    0.70486608682664   -0.32417845452976
H         4.43249911773631   -0.52264601205743   -0.81706129779725
H         6.75750474658614   -0.01905252118012   -0.26677439075275
H         6.07840122765855    1.10992545476971   -1.25210331705612
H        -2.45558082405056    2.90856435089626   -0.62483380563244
H        -2.14528491055148    0.56339881099380    0.06481477732922
H        -0.51748095296908    4.37983230217030   -0.97180955124106
H         1.77164934841660    3.54276555352930   -0.64095992215930
H         2.47615931741476   -1.28315639466982    0.82483956598154
O         5.18376613134673   -0.12114401845304    2.29040006035835
O         4.41867882711971   -1.93521408905093    1.19053468305200
H         4.53911430814834   -2.31920314292334    2.08076794800929
