27
Energy =
C    -1.1114898    1.6355170    2.3848395 
C    -0.5802690    0.3811217    2.4064996 
C     0.4614279    0.1131602    1.5914066 
C    -0.5922649    2.5878800    1.5537303 
C     0.4608483    2.2912292    0.7396851 
C     0.9769428    1.0326188    0.7760836 
N     1.1502635   -1.1161371    1.4648612 
C     2.0032449    0.5063638    0.0759889 
C     2.1314939   -0.7850713    0.4689232 
H     0.9855347   -2.0187981    1.9680904 
C     2.8080176    1.3215535   -0.9462341 
C     3.9946337    0.7424735   -1.7866788 
H     3.1789206    2.2193223   -0.4023950 
H     2.0702526    1.7255497   -1.6744069 
C     4.3216010   -0.7260530   -1.6214965 
N     5.1785500    1.5989234   -1.5839985 
H     3.7011798    0.8164742   -2.8609774 
H     5.5702481    1.4049276   -0.6296148 
H     5.9280664    1.3057346   -2.2555796 
H    -1.9513164    1.8790337    3.0308119 
H    -0.9804295   -0.3867429    3.0599620 
H    -1.0211913    3.5870718    1.5412237 
H     0.8675198    3.0535685    0.0817356 
H     2.8493952   -1.5130954    0.1138055 
O     3.5852290   -1.6823112   -2.3050926 
O     5.2738759   -1.1505508   -0.7051155 
H     5.3970580   -2.1507756   -0.8044335 
