27
Energy =
C    -1.3435167    2.4955477    0.0016211 
C    -0.9795406    1.7117256    1.0650371 
C     0.3279502    1.4420461    1.3286541 
C    -0.3913566    3.1051766   -0.7590721 
C     0.9998572    3.1879295   -0.2888102 
C     1.2696605    1.9601859    0.5694916 
N     0.7862102    0.1957516    1.8436557 
C     2.2109383    1.0443060    0.2752203 
C     1.9702186   -0.0104532    1.0614954 
H     0.3399266   -0.4035392    2.5564282 
C     2.8597236    0.9240164   -1.1352594 
C     3.7617095    2.0450933   -1.7465235 
H     1.9581383    0.9361678   -1.7959570 
H     3.2719447   -0.0490321   -1.2724396 
C     4.7673170    2.5784150   -0.7308869 
N     2.6658289    2.9750150   -2.2197108 
H     4.5349655    1.7664678   -2.5507883 
H     1.8828064    3.0681219   -1.2701141 
H     2.9960441    3.9662733   -2.2968431 
H    -2.3819459    2.5866947   -0.2744013 
H    -1.7382332    1.1625025    1.5970020 
H    -0.5412632    3.7074947   -1.6223878 
H     0.9098092    4.0209362    0.5312819 
H     2.4016565   -0.9836119    0.8858504 
O     6.1113234    2.2008133   -0.8176141 
O     4.3295316    3.3655012    0.2908323 
H     3.3006208    3.3372954    0.0081803 
