27
Energy =
C    -1.6122674    2.6128857   -0.5723956 
C    -1.2990453    1.3468188   -0.9702169 
C    -0.0278497    0.9225488   -0.8105562 
C    -0.6522721    3.4218570   -0.0291442 
C     0.6260030    2.9699273    0.1197888 
C     0.9137158    1.7054155   -0.2818898 
N     0.5056223   -0.3454243   -1.1646100 
C     2.0766522    1.0359967   -0.2493297 
C     1.8760577   -0.1856600   -0.7744945 
H     0.0258415   -1.1743383   -1.5852254 
C     3.4095597    1.5600899    0.2382763 
C     4.1020324    2.4424279   -0.8157200 
H     4.0749697    0.7145347    0.5200316 
H     3.2551958    2.1539285    1.1660836 
C     4.4715693    1.6601330   -2.0726853 
N     5.2693917    3.0832166   -0.1858297 
H     3.3927229    3.2384356   -1.1434742 
H     5.9971470    2.3543791    0.0135921 
H     5.7112034    3.7365605   -0.8772038 
H    -2.6284107    2.9812695   -0.6911329 
H    -2.0466274    0.6934573   -1.4076424 
H    -0.9076613    4.4316249    0.2829487 
H     1.3874447    3.6153457    0.5475368 
H     2.6449038   -0.9423711   -0.9119909 
O     3.7078787    1.7973260   -3.2229145 
O     5.5438999    0.7761996   -2.0750944 
H     5.2584930   -0.0887189   -1.6432942 
