27
Energy =
C    -1.3906559    2.3212655   -0.9293147 
C    -1.2629359    1.1253821   -0.2869745 
C    -0.0208510    0.6869666    0.0070888 
C    -0.2801224    3.0477898   -1.2601211 
C     0.9644653    2.5826541   -0.9510759 
C     1.0671330    1.3884630   -0.3123998 
N     0.3297374   -0.5180374    0.6698366 
C     2.1623215    0.7269734    0.0946564 
C     1.7601690   -0.4152530    0.6897779 
H    -0.2894102   -1.2745119    1.0416715 
C     3.5913851    1.2162661   -0.0813197 
C     4.6921124    0.2395981    0.4110436 
H     3.6885048    2.1780345    0.4719970 
H     3.7693050    1.4434180   -1.1567803 
C     6.0727622    0.9080330    0.4342242 
N     4.6843452   -1.0187244   -0.3764934 
H     4.4822844   -0.0049361    1.4764135 
H     3.9541207   -1.0115361   -1.1281736 
H     5.5936079   -1.1584429   -0.8823503 
H    -2.3793605    2.6987654   -1.1783030 
H    -2.1330012    0.5370796   -0.0158931 
H    -0.3895151    4.0014724   -1.7712706 
H     1.8464190    3.1609834   -1.2122215 
H     2.4148970   -1.1694293    1.1203467 
O     6.3014301    2.0736147   -0.2886437 
O     7.1311666    0.3421769    1.1430210 
H     6.8661104   -0.5330471    1.5717605 
