27
Energy =
C    -0.6875564    1.4188161    2.0181353 
C    -0.7637675    0.2290607    1.3562468 
C     0.1227165   -0.0103803    0.3672533 
C     0.2703858    2.3351347    1.6808878 
C     1.1561190    2.0685282    0.6783756 
C     1.0571274    0.8799057    0.0301952 
N     0.2238884   -1.1812339   -0.4311406 
C     1.7984063    0.3828096   -0.9710803 
C     1.3409706   -0.8471603   -1.2655600 
H    -0.3582721   -2.0495626   -0.4183822 
C     2.9861368    1.0467367   -1.6376883 
C     4.3256470    0.9336706   -0.8434076 
H     2.7439595    2.1191248   -1.8017539 
H     3.0912388    0.6222311   -2.6623876 
C     5.4518120    0.3398036   -1.6951384 
N     4.1490714    0.1913247    0.4188016 
H     4.6333424    1.9726377   -0.5885432 
H     4.0050627   -0.8259744    0.2053017 
H     5.0308894    0.2472600    0.9821287 
H    -1.3878469    1.6373039    2.8203785 
H    -1.5130147   -0.5112706    1.6151997 
H     0.3298235    3.2787270    2.2177542 
H     1.9247045    2.7901106    0.4182275 
H     1.7674574   -1.5086369   -2.0160408 
O     5.1964549   -0.7599609   -2.5061800 
O     6.7518960    0.8429271   -1.6419871 
H     6.8504005    1.5878027   -0.9689962 
