27
 energy: -5.222747515393 gnorm: 0.000712027392 xtb: 6.6.0 (2ccbbd7)
C           -1.13984674625380        2.61052426318417        0.36894709385666
C           -1.13516961975537        1.25201711693299        0.20802921096982
C            0.07193879191197        0.62126031413266       -0.11884639118347
C            0.03465878012667        3.36519446628259        0.21543771599751
C            1.22389053571032        2.76875454353690       -0.10155545542308
C            1.25269614858992        1.37402942833143       -0.27549982234215
N            0.39125059303834       -0.70750822735042       -0.33957744345606
C            2.29391595471613        0.45473259418824       -0.60233585398685
C            1.73155302071518       -0.79672122161112       -0.62087070387210
H           -0.26557946095209       -1.48645047468879       -0.26344814538047
C            3.73381735224137        0.76361726912885       -0.83207760475060
C            4.63754634235026        0.25470988257324        0.29650946932172
H            3.86139883584190        1.84321006462118       -0.95622368515007
H            4.04536808161373        0.30598659554457       -1.77729301025717
C            4.55899294178148       -1.25488765337920        0.38850598817705
N            4.30674174939296        0.85059496796917        1.58682104140814
H            5.68456244821286        0.51637639381023        0.07525951837170
H            3.93343602978902        1.78550648089503        1.47433631935807
H            3.59743641877524        0.27777243895106        2.03460689069235
H           -2.06030853338227        3.11286322844632        0.61729492834885
H           -2.02964469226473        0.66683937523128        0.32436977170483
H           -0.00488242326650        4.43344742278946        0.34980535080864
H            2.12405965893918        3.34481008683807       -0.22081829428459
H            2.27428002570447       -1.71207014681529       -0.79549529057078
O            4.80211517235035       -1.92400173271896       -0.59134805794565
O            4.18259628109530       -1.78187115968544        1.57318027696249
H            4.19155561601175       -2.75364132237460        1.46939778859985
