27
 energy: -5.224180882173 gnorm: 0.000845247646 xtb: 6.4.0 (d4b70c2)
C        -1.46784901247307    2.65337879356915   -0.54438029118537
C        -1.37388344611356    1.29652356138338   -0.39856431735970
C        -0.11219121864499    0.73433633165958   -0.16663527203673
C        -0.33072172597937    3.47364847871013   -0.46414801584615
C         0.91014700678227    2.94448962733266   -0.23913787958979
C         1.03205931817354    1.55230129465439   -0.08715138058647
N         0.29696483507552   -0.57306296769402    0.02694633223521
C         2.14652657177068    0.69619815640718    0.16174687677491
C         1.65227245712920   -0.58295331126349    0.23636095093095
H        -0.32560333533445   -1.38310335824704    0.04531979522750
C         3.56096753405274    1.13673831611046    0.36421334580087
C         4.60688475721406    0.04187622507416    0.12279658777443
H         3.67866146294806    1.51189821706309    1.38505296116082
H         3.76534527743677    1.98455426008463   -0.29658923761944
C         4.55648720375088   -0.99871535851125    1.21799212404077
N         5.95932304460947    0.57343651573130    0.04853440997614
H         4.39280863606138   -0.46029183363310   -0.83269689261842
H         6.00188873584393    1.40021352178637   -0.53479385325850
H         6.25268321554402    0.82610704243452    0.98207717550844
H        -2.43085184781863    3.10293138069657   -0.72167196933911
H        -2.23929670049578    0.66114258949996   -0.45642027681838
H        -0.44040493353957    4.53897702053848   -0.58120986215318
H         1.78255027497961    3.56976282342714   -0.17295571289482
H         2.23687464609604   -1.46450369638891    0.43987934461195
O         4.93265660156587   -0.69443319131726    2.32686871210639
O         4.07146034415585   -2.21905419868149    0.89796381888705
H         4.13372816592692   -2.76842210395073    1.70318441302654
