27
Energy =
C    -1.3352979    2.0002079   -0.5519599 
C    -0.9792819    0.9719366    0.2688934 
C     0.3310660    0.6696320    0.3841723 
C    -0.3790856    2.6992847   -1.2347542 
C     0.9388683    2.3761985   -1.1002119 
C     1.2712177    1.3468120   -0.2784613 
N     0.9069425   -0.3565209    1.1803773 
C     2.4768631    0.8355801    0.0228564 
C     2.2987457   -0.1811347    0.8856113 
H     0.4386377   -1.0440518    1.8140004 
C     3.8232334    1.2869646   -0.5095486 
C     4.2420554    0.5579220   -1.8092981 
H     4.5997203    1.1211052    0.2693464 
H     3.8055033    2.3845233   -0.6868796 
C     3.2831771    0.8447180   -2.9701565 
N     4.4224852   -0.8856572   -1.5689972 
H     5.2293114    0.9645325   -2.1221839 
H     5.0074826   -1.0502116   -0.7172579 
H     3.4932065   -1.3521397   -1.4297897 
H    -2.3839175    2.2614775   -0.6693789 
H    -1.7261441    0.4051053    0.8141637 
H    -0.6702450    3.5119259   -1.8959706 
H     1.6923095    2.9284648   -1.6534263 
H     3.0959257   -0.7953276    1.2966052 
O     2.1808403    0.0251321   -3.1857516 
O     3.4300955    1.9830987   -3.7652947 
H     4.2483019    2.5170035   -3.5170419 
