27
Energy =
C    -1.2958166    2.1899095   -0.7885345 
C    -1.0956191    1.0550535   -0.0603655 
C     0.1735529    0.6539401    0.1630987 
C    -0.2291522    2.8938202   -1.2746616 
C     1.0442168    2.4685883   -1.0350084 
C     1.2203480    1.3353533   -0.3070849 
N     0.5953703   -0.4916068    0.8902238 
C     2.3521032    0.7139666    0.0631289 
C     2.0198647   -0.3796633    0.7720988 
H     0.0204872   -1.2130271    1.3824067 
C     3.7724310    1.1266936   -0.2673325 
C     4.2984113    0.4918333   -1.5697159 
H     4.4432020    0.8274824    0.5679909 
H     3.8386775    2.2342306   -0.3393154 
C     3.4748776    0.8868400   -2.7879075 
N     4.4244931   -0.9676640   -1.3897215 
H     5.3087600    0.9212495   -1.7647516 
H     3.4720880   -1.4042739   -1.4408357 
H     4.9438104   -1.3613723   -2.2105647 
H    -2.3075336    2.5339373   -0.9875280 
H    -1.9312305    0.4834996    0.3288983 
H    -0.3959594    3.7944508   -1.8603800 
H     1.8882643    3.0262823   -1.4302855 
H     2.7306625   -1.0936756    1.1817739 
O     2.4577746    0.0695163   -3.2683575 
O     3.7111579    2.1040959   -3.4107602 
H     3.0680555    2.1950064   -4.1872026 
