27
Energy =
C    -1.1129904    2.9086745   -1.4341340 
C    -1.1976871    1.7818917   -0.6720759 
C    -0.0540868    1.2349855   -0.2092738 
C     0.1059942    3.4604351   -1.7147874 
C     1.2482187    2.8892705   -1.2355919 
C     1.1408319    1.7655604   -0.4783736 
N     0.0748163    0.0704641    0.5931893 
C     2.0943442    1.0174656    0.1040334 
C     1.4971457   -0.0000395    0.7496678 
H    -0.6689172   -0.5630936    0.9663502 
C     3.5925284    1.2321710    0.0548005 
C     4.2999751    0.1888566   -0.8468139 
H     3.9881082    1.1567430    1.0935171 
H     3.8479383    2.2574614   -0.2890975 
C     5.8082528    0.2298487   -0.6601671 
N     3.9551385    0.3800561   -2.2714373 
H     3.9948138   -0.8315782   -0.5141191 
H     3.5443920   -0.5056326   -2.6505322 
H     3.2323401    1.1219945   -2.4153234 
H    -2.0187074    3.3703498   -1.8195484 
H    -2.1567749    1.3314761   -0.4398412 
H     0.1651146    4.3601740   -2.3229105 
H     2.2114669    3.3341426   -1.4631657 
H     2.0149309   -0.7746788    1.3114846 
O     6.4605184    1.4245846   -0.3752425 
O     6.5564096   -0.9313269   -0.8000243 
H     6.7341590   -1.0768322   -1.7836726 
