27
Energy =
C    -1.4228204    2.1538454    0.0612964 
C    -1.2244314    0.8677248   -0.3437262 
C     0.0439674    0.4217497   -0.4596480 
C    -0.3549588    2.9606702    0.3401692 
C     0.9181458    2.4871243    0.2157915 
C     1.0932508    1.2018477   -0.1907066 
N     0.4624959   -0.8740279   -0.8627098 
C     2.2235313    0.5014477   -0.3909293 
C     1.8869345   -0.7373468   -0.7922205 
H    -0.1146272   -1.7027093   -1.1341849 
C     3.6492723    0.9826180   -0.2192942 
C     4.3635626    1.1880367   -1.5773651 
H     4.1994662    0.2206662    0.3784333 
H     3.6981324    1.9236304    0.3695766 
C     5.8566326    1.3926006   -1.3586808 
N     3.7388491    2.2823925   -2.3616498 
H     4.2879302    0.2494605   -2.1730191 
H     2.9588313    2.7479602   -1.8447276 
H     4.4312044    3.0444074   -2.5644017 
H    -2.4343700    2.5390533    0.1625706 
H    -2.0603842    0.2143281   -0.5691027 
H    -0.5216585    3.9857502    0.6626771 
H     1.7593771    3.1348830    0.4385574 
H     2.5920595   -1.5295441   -1.0348237 
O     6.7478592    0.3597530   -1.6216330 
O     6.3367967    2.5846938   -0.8303361 
H     7.3435444    2.5188317   -0.7493206 
