27
Energy =
C    -1.3177153    2.9299671   -0.6666432 
C    -1.3062977    1.5672669   -0.6920957 
C    -0.1262128    0.9341020   -0.5255347 
C    -0.1556735    3.6250056   -0.4770173 
C     1.0243890    2.9615524   -0.3086442 
C     1.0128785    1.6041662   -0.3375298 
N     0.0999450   -0.4681338   -0.5207152 
C     2.0215421    0.7272037   -0.1990096 
C     1.5166267   -0.5151852   -0.3073719 
H    -0.5842319   -1.2511690   -0.6349869 
C     3.4886475    1.0364625    0.0281797 
C     4.2980941    1.1735518   -1.2784001 
H     3.9354986    0.2116801    0.6265477 
H     3.5961093    1.9559433    0.6426980 
C     3.9479655    2.4359306   -2.0532141 
N     4.1653525   -0.0551713   -2.0830048 
H     5.3691668    1.2955310   -0.9936961 
H     3.2384704   -0.0464292   -2.5767995 
H     4.8819035   -0.0307842   -2.8469783 
H    -2.2535075    3.4658099   -0.8053329 
H    -2.2184869    1.0006981   -0.8465341 
H    -0.1706689    4.7122097   -0.4703788 
H     1.9464336    3.5161668   -0.1737151 
H     2.1021835   -1.4308797   -0.2585546 
O     2.8073418    2.4955454   -2.8414066 
O     4.7304558    3.5742326   -1.9180219 
H     4.4921122    4.0452583   -1.0591901 
