27
Energy =
C    -1.2316246    1.7289578    0.6579605 
C    -1.0622413    0.5625510   -0.0274714 
C     0.1577185    0.2915432   -0.5368116 
C    -0.1824216    2.5909244    0.8216007 
C     1.0420818    2.2931446    0.2995010 
C     1.1853585    1.1283665   -0.3842118 
N     0.5482931   -0.8660415   -1.2618510 
C     2.2697474    0.6070106   -0.9787138 
C     1.9350288   -0.5860090   -1.4993259 
H    -0.0229750   -1.6949579   -1.5448761 
C     3.6595678    1.2005226   -1.0077773 
C     4.4609807    0.8054177    0.2449718 
H     3.5899125    2.3080567   -1.0899409 
H     4.1994013    0.8575369   -1.9188023 
C     5.7275090    1.6402597    0.3583877 
N     4.7425104   -0.6414636    0.1995700 
H     3.8518759    1.0379510    1.1504422 
H     5.4517916   -0.8345413   -0.5499124 
H     5.1859962   -0.9346639    1.1022090 
H    -2.2038274    1.9725201    1.0790514 
H    -1.8820302   -0.1350214   -0.1610637 
H    -0.3242066    3.5173107    1.3732820 
H     1.8752727    2.9760742    0.4379412 
H     2.6269485   -1.2628741   -1.9965187 
O     6.7252727    1.5391772   -0.6013958 
O     5.8818807    2.5361007    1.4064778 
H     6.1721854    2.0308650    2.2307805 
