27
Energy =
C    -0.4835746    3.2506711    1.1718036 
C    -0.6154894    1.8940703    1.2001687 
C     0.3806404    1.1435596    0.6846388 
C     0.6340286    3.8231780    0.6301810 
C     1.6270342    3.0423200    0.1144740 
C     1.4750624    1.6935566    0.1551817 
N     0.4368196   -0.2739733    0.6111262 
C     2.2914919    0.7187914   -0.2777882 
C     1.7035810   -0.4655866   -0.0319284 
H    -0.2584242   -0.9834783    0.9391538 
C     3.6236177    0.8838247   -0.9755613 
C     3.4584709    0.9207527   -2.5069242 
H     4.2833651    0.0327547   -0.6907252 
H     4.1412389    1.8024611   -0.6219088 
C     4.8147467    0.8134584   -3.2101983 
N     2.7100717    2.1369954   -2.8874001 
H     2.8806312    0.0188855   -2.8220522 
H     3.3490031    2.9717240   -2.8434992 
H     2.4229534    2.0543048   -3.8914775 
H    -1.2715879    3.8792262    1.5797701 
H    -1.4965614    1.4236025    1.6235713 
H     0.7302769    4.9063932    0.6089045 
H     2.5111616    3.4974120   -0.3196779 
H     2.1193588   -1.4365744   -0.2937294 
O     5.0922564   -0.3103520   -3.9844511 
O     5.7814466    1.8192117   -3.0797084 
H     5.4984473    2.5810982   -2.4700000 
