27
Energy =
C    -1.2976264    2.4538361   -0.6044224 
C    -1.1892409    1.0950688   -0.5806858 
C     0.0391972    0.5537934   -0.4424138 
C    -0.1814984    3.2362181   -0.4937154 
C     1.0495847    2.6650101   -0.3563350 
C     1.1331148    1.3095335   -0.3307682 
N     0.3696572   -0.8272736   -0.4091679 
C     2.2082322    0.5124495   -0.2155524 
C     1.7946054   -0.7659078   -0.2659224 
H    -0.2581155   -1.6615569   -0.4729944 
C     3.6544217    0.9382251   -0.0912438 
C     4.3795982    0.9399779   -1.4530072 
H     4.1642827    0.2333782    0.6060396 
H     3.7314366    1.9428095    0.3769634 
C     5.8898979    1.0314655   -1.2355764 
N     3.8588696    2.0422527   -2.2821284 
H     4.2151182   -0.0344910   -1.9721917 
H     4.3831187    2.0376415   -3.1853839 
H     2.8610131    1.8318854   -2.5465875 
H    -2.2752688    2.9165388   -0.7153167 
H    -2.0637239    0.4597016   -0.6723370 
H    -0.2753990    4.3193912   -0.5186232 
H     1.9350812    3.2887971   -0.2798091 
H     2.4462356   -1.6361716   -0.2148566 
O     6.5464126   -0.0295167   -0.6358437 
O     6.6303474    2.1570293   -1.5662799 
H     6.0184845    2.7530619   -2.1032199 
