27
Energy =
C    -1.2484590    2.5700055   -1.3829820 
C    -1.2204075    1.3440241   -0.7881183 
C    -0.0334615    0.8702596   -0.3544700 
C    -0.0957869    3.2900944   -1.5315781 
C     1.0918370    2.7896125   -1.0851066 
C     1.0967069    1.5674147   -0.4917895 
N     0.2094663   -0.3746438    0.2830980 
C     2.1164722    0.8609515    0.0259674 
C     1.6254647   -0.3002179    0.4966219 
H    -0.4551970   -1.1465566    0.5209686 
C     3.5766143    1.2691323    0.0917470 
C     3.9829353    1.9317995    1.4325419 
H     3.8200965    1.9533439   -0.7483398 
H     4.2056612    0.3639344   -0.0665655 
C     3.8956338    0.9761859    2.6163299 
N     3.2303800    3.1777228    1.6641816 
H     5.0647906    2.1881221    1.3627234 
H     3.2857406    3.8002205    0.8255242 
H     2.2206319    2.9582325    1.8458674 
H    -2.1917649    2.9762976   -1.7403083 
H    -2.1258076    0.7593252   -0.6622798 
H    -0.1259958    4.2673088   -2.0077486 
H     2.0028848    3.3650152   -1.2084113 
H     2.2118563   -1.0666488    1.0001192 
O     2.6699292    0.6194829    3.1635826 
O     5.0519771    0.4168065    3.1430748 
H     5.5062921    1.1070480    3.7228494 
