27
Energy =
C    -1.6084133    1.8756264   -0.1819064 
C    -1.2319119    0.5684538   -0.1295317 
C     0.0860595    0.2796000   -0.1567998 
C    -0.6638964    2.8601969   -0.2390869 
C     0.6625730    2.5432515   -0.2566902 
C     1.0215110    1.2328101   -0.2362015 
N     0.6727720   -1.0068817   -0.0524551 
C     2.2414100    0.6554073   -0.2256349 
C     2.0633769   -0.6738198   -0.0772284 
H     0.2118391   -1.9431147    0.0244461 
C     3.6167959    1.3172029   -0.2782015 
C     4.3852518    1.3392813   -1.6589696 
H     4.2548678    0.7405629    0.4292820 
H     3.5846695    2.3180260    0.1945440 
C     4.4089011    2.6380789   -2.4845355 
N     4.0804667    0.1926480   -2.5446050 
H     5.4608354    1.2626458   -1.3715689 
H     4.9427172   -0.3765642   -2.7167324 
H     3.3339128   -0.4519578   -2.2217093 
H    -2.6639493    2.1365096   -0.1624859 
H    -1.9683305   -0.2253262   -0.0601852 
H    -0.9713054    3.9035079   -0.2583399 
H     1.3910967    3.3359053   -0.2482590 
H     2.8651361   -1.4042258    0.0091732 
O     5.2729502    2.6940912   -3.5719406 
O     3.6811644    3.7924957   -2.1960814 
H     3.1478996    3.7246632   -1.3605253 
