27
Energy =
C    -0.7920210    1.9907794   -1.7974764 
C    -1.0226398    1.1717197   -0.7322104 
C     0.0105970    0.8795681    0.0854438 
C     0.4598814    2.4935250   -2.0217610 
C     1.4881113    2.1824516   -1.1812285 
C     1.2341717    1.3682371   -0.1242512 
N    -0.0130084    0.0432060    1.2334807 
C     2.0597816    0.9121817    0.8319935 
C     1.3554836    0.1145842    1.6537730 
H    -0.8124986   -0.4834513    1.6542202 
C     3.5403006    1.1914634    0.9706682 
C     4.4065839    0.1049328    0.2977586 
H     3.7881537    1.2540746    2.0544723 
H     3.7935775    2.1862230    0.5410334 
C     5.8826688    0.2444824    0.6931662 
N     4.2278351    0.1848853   -1.1629781 
H     4.0742238   -0.8935323    0.6654816 
H     4.9155057   -0.4448665   -1.6409520 
H     3.2825898   -0.1902451   -1.4144779 
H    -1.6061174    2.2427805   -2.4725309 
H    -2.0083923    0.7610613   -0.5420037 
H     0.6380820    3.1426497   -2.8758986 
H     2.4839915    2.5742849   -1.3675136 
H     1.7618616   -0.4092580    2.5160601 
O     6.3810972    1.4661299    1.1345096 
O     6.7563394   -0.8404416    0.6075466 
H     6.3006032   -1.6605372    0.2372303 
