27
Energy =
C    -1.3180383    1.4424987   -1.1520376 
C    -1.0700387    0.4109627   -0.2954334 
C     0.2051696    0.1903233    0.0875207 
C    -0.2912333    2.2244492   -1.6049286 
C     0.9892734    1.9806268   -1.2032122 
C     1.2115828    0.9498087   -0.3476463 
N     0.6761837   -0.8241034    0.9635057 
C     2.3606253    0.5089163    0.1884985 
C     2.0828322   -0.5470030    0.9737196 
H     0.1393441   -1.5680968    1.4656468 
C     3.7403801    1.0941228   -0.0221051 
C     3.9486044    2.4067872    0.7781463 
H     3.8774877    1.2851040   -1.1104195 
H     4.5251470    0.3557228    0.2615627 
C     5.2033732    3.1574797    0.3275024 
N     4.0030518    2.1441601    2.2320636 
H     3.1005526    3.0923029    0.5471800 
H     3.3012620    2.7451953    2.7250357 
H     3.7623316    1.1556248    2.4750925 
H    -2.3358730    1.6423439   -1.4778663 
H    -1.8721761   -0.2203785    0.0714602 
H    -0.4958410    3.0433138   -2.2907653 
H     1.8046352    2.5984492   -1.5680594 
H     2.8168959   -1.1171499    1.5387677 
O     6.1778110    2.5134217   -0.4293961 
O     5.3918233    4.5010520    0.6544794 
H     4.6810977    4.8301944    1.2911795 
