27
Energy =
C    -1.4630404    2.1262646   -0.1366205 
C    -1.1647843    0.8374514    0.1940952 
C     0.1258147    0.4464363    0.1423636 
C    -0.4696665    2.9905367   -0.5070968 
C     0.8277115    2.5715315   -0.5496084 
C     1.0999795    1.2830590   -0.2186840 
N     0.6484240   -0.8369824    0.4557511 
C     2.2746655    0.6363102   -0.1746704 
C     2.0488051   -0.6257023    0.2301652 
H     0.1470234   -1.6997059    0.7692760 
C     3.6395668    1.2195470   -0.4609769 
C     4.2029341    1.9769701    0.7548603 
H     3.5700710    1.8927026   -1.3439879 
H     4.3483369    0.4045864   -0.7371570 
C     5.4459570    2.7718105    0.3461159 
N     4.4850857    1.0029681    1.8264494 
H     3.4555376    2.7212392    1.1158586 
H     5.1232979    1.4295541    2.5418754 
H     3.5953670    0.7747148    2.3293690 
H    -2.4947137    2.4679640   -0.1045742 
H    -1.9399399    0.1398814    0.4928776 
H    -0.7153196    4.0170868   -0.7690794 
H     1.6154664    3.2589575   -0.8428476 
H     2.8205166   -1.3759348    0.3918631 
O     6.7119135    2.2207270    0.5018780 
O     5.3338124    4.0364126   -0.2333677 
H     4.3732370    4.3257410   -0.3376786 
