27
Energy =
C    -1.2113116    1.7609672    0.2293433 
C    -0.9536729    0.7831828   -0.6848761 
C     0.3340581    0.5055124   -0.9785425 
C    -0.1817659    2.4333693    0.8273287 
C     1.1112804    2.1346730    0.5135084 
C     1.3446303    1.1582831   -0.4012634 
N     0.8146847   -0.4771500   -1.8853430 
C     2.5061210    0.6744423   -0.8718217 
C     2.2313612   -0.3053234   -1.7507650 
H     0.2751075   -1.1420544   -2.4857881 
C     3.9028001    1.0927496   -0.4662235 
C     4.4598427    0.2253358    0.6727111 
H     3.9270791    2.1639437   -0.1653293 
H     4.5767189    1.0090659   -1.3472696 
C     3.6527541    0.4221451    1.9650665 
N     5.8893636    0.5663423    0.8237320 
H     4.3708716   -0.8472251    0.3818061 
H     6.1366512    0.7640992    1.8246708 
H     6.4805860   -0.2457216    0.5281973 
H    -2.2387720    2.0024984    0.4894191 
H    -1.7586502    0.2360297   -1.1633232 
H    -0.3929984    3.2049671    1.5639323 
H     1.9244685    2.6639661    1.0016753 
H     2.9763226   -0.8965954   -2.2790852 
O     3.8517656    1.5619785    2.7361942 
O     2.6694442   -0.4862080    2.3599389 
H     2.5452752   -1.2326198    1.6924616 
