27
Energy =
C    -1.2636570    2.3639132   -1.2843821 
C    -1.1765524    1.0745883   -0.8502251 
C     0.0257731    0.6167144   -0.4424758 
C    -0.1529058    3.1613340   -1.3024766 
C     1.0514267    2.6748940   -0.8856870 
C     1.1146123    1.3881597   -0.4557938 
N     0.3299371   -0.6855503    0.0370058 
C     2.1609115    0.6792146   -0.0010505 
C     1.7347236   -0.5618827    0.2938098 
H    -0.3017015   -1.5089265    0.1672153 
C     3.5958097    1.1419076    0.1229639 
C     4.4086518    0.8039378   -1.1404217 
H     4.0557410    0.6432926    1.0070597 
H     3.6407694    2.2337205    0.3260763 
C     5.8958273    1.0160702   -0.8906572 
N     3.8949125    1.5901785   -2.2775035 
H     4.2923776   -0.2834457   -1.3616808 
H     4.1244187    2.6037116   -2.1368370 
H     4.3769516    1.2847984   -3.1556367 
H    -2.2197152    2.7584715   -1.6193294 
H    -2.0471510    0.4278087   -0.8317180 
H    -0.2292968    4.1878550   -1.6527778 
H     1.9319521    3.3084537   -0.9056063 
H     2.3651877   -1.3676508    0.6639568 
O     6.6465360   -0.0074713   -0.3316433 
O     6.5010138    2.2435595   -1.1308277 
H     6.6633874    2.3444683   -2.1213105 
