27
 energy: -5.219974476996 gnorm: 0.000879504686 xtb: 6.4.0 (d4b70c2)
C        -1.17294690205153    2.60577441502059   -0.38374215440417
C        -1.15878515795189    1.25674486806279   -0.15831131841190
C         0.07739724815639    0.60155852163898   -0.09018289811988
C         0.02052141022573    3.32627945102751   -0.54983097484454
C         1.23542996968773    2.70419868817458   -0.48420686309344
C         1.27941432770973    1.31980209239115   -0.24375799294043
N         0.40796003275204   -0.72752881151990    0.10302588899490
C         2.34874710370705    0.38076897217774   -0.11850244134895
C         1.77490335287796   -0.85051239864966    0.08439567319188
H        -0.26821467134706   -1.48090636953473    0.24163559220002
C         3.81410944761810    0.64668866980611   -0.23256028388046
C         4.28779290297380    0.88359407620437   -1.67640594282878
H         4.35710226183062   -0.20012761458344    0.20011793167783
H         4.07114534313990    1.51893866797831    0.37760836425109
C         3.93192715681554    2.28392000079756   -2.14258769210581
N         3.74737658674444   -0.11220630533442   -2.58995791479484
H         5.38658615607570    0.81734461997385   -1.71804443215290
H         4.02096769782400   -1.04058151399640   -2.29941122038907
H         2.73994715714889   -0.07716742410376   -2.54336256893100
H        -2.11493178187878    3.12571815404665   -0.44076745906185
H        -2.06774020640931    0.69557076493765   -0.03623292216837
H        -0.02402471389331    4.38556670404891   -0.74182301061999
H         2.15034980662105    3.24299951309599   -0.65197394166700
H         2.30984425471440   -1.77904460659392    0.20132324674652
O         4.00673039082274    3.18857201348421   -1.33843665353995
O         3.56307792965469    2.41795286997557   -3.43863951440167
H         3.62437938393576    1.54945743190767   -3.89795511240350
