27
 energy: -5.224180903409 gnorm: 0.000845262064 xtb: 6.6.0 (2ccbbd7)
C           -1.46784243845986        2.65337732290276       -0.54442389269308
C           -1.37388422855775        1.29652461444252       -0.39857334336857
C           -0.11219630375761        0.73433826377452       -0.16661569837369
C           -0.33071198479233        3.47364293929586       -0.46419246382577
C            0.91015266173984        2.94448493192495       -0.23915802267537
C            1.03205595984320        1.55229978077035       -0.08713037085585
N            0.29695266522802       -0.57306320200852        0.02696714564300
C            2.14651674214349        0.69619959582407        0.16180279792345
C            1.65225607728010       -0.58294843640368        0.23641888661221
H           -0.32561993897439       -1.38310058915129        0.04533250854965
C            3.56095665703384        1.13673828018671        0.36427471565495
C            4.60687283500103        0.04188897759113        0.12279496912175
H            3.67866130226457        1.51186012576460        1.38512710619905
H            3.76532436227921        1.98458437982226       -0.29649447572915
C            4.55651510556541       -0.99872895432167        1.21796651043074
N            5.95930688730333        0.57345751824493        0.04850298837835
H            4.39276906925491       -0.46025558185389       -0.83270563782942
H            6.00183980123993        1.40026340559269       -0.53478794403797
H            6.25271249599048        0.82607919464054        0.98204409882501
H           -2.43083945196555        3.10293231198715       -0.72173930185958
H           -2.23929865228504        0.66114488579292       -0.45642522124868
H           -0.44039171948224        4.53897006518778       -0.58126938252938
H            1.78255744305781        3.56975656345139       -0.17297887499644
H            2.23686096868241       -1.46450222570486        0.43992053895572
O            4.93273694418914       -0.69448002459976        2.32683472100185
O            4.07146433599361       -2.21905662026907        0.89793821914877
H            4.13376027290052       -2.76843338640452        1.70315131032925
