27
Energy =
C    -1.6343984    0.5492842    1.5367418 
C    -0.5922549    1.0361077    2.2666638 
C     0.6321313    1.0564646    1.6995385 
C    -1.4300921    0.0964928    0.2638698 
C    -0.1826579    0.1278317   -0.2860705 
C     0.8454087    0.6178441    0.4593066 
N     1.8338406    1.5184039    2.2851128 
C     2.1499582    0.7491283    0.1390409 
C     2.7704091    1.2886485    1.2196628 
H     1.9931259    1.9196205    3.2384705 
C     2.7054677    0.3282258   -1.2318315 
C     4.2098327    0.4658859   -1.6493548 
H     2.0897466    0.8704691   -1.9840377 
H     2.4350152   -0.7427964   -1.3614142 
C     5.1634807    0.9612021   -0.5832077 
N     4.2935679    1.2793554   -2.8768843 
H     4.5849816   -0.5569100   -1.8860372 
H     5.2981284    1.4494061   -3.1233723 
H     3.8818867    0.7415059   -3.6749929 
H    -2.6315971    0.5215889    1.9687067 
H    -0.7369486    1.3997185    3.2784248 
H    -2.2664971   -0.2901429   -0.3134315 
H    -0.0291860   -0.2332106   -1.2986629 
H     3.8213292    1.5301309    1.3289114 
O     5.4809046    2.3077703   -0.4724803 
O     5.5996028    0.0954641    0.4113356 
H     6.3867012   -0.4362636    0.0648333 
