27
Energy =
C    -1.1126132    1.5467687    1.2122145 
C    -0.9816392    0.3635720    0.5481862 
C     0.1794150    0.1153918   -0.0936023 
C    -0.0853837    2.4491156    1.2205920 
C     1.0781022    2.1754338    0.5639204 
C     1.1868278    0.9908181   -0.0914050 
N     0.5193294   -1.0506258   -0.8306286 
C     2.2104405    0.4842676   -0.7992345 
C     1.8530592   -0.7324399   -1.2473061 
H    -0.0538358   -1.9045853   -1.0199167 
C     3.5657780    1.1162662   -1.0337605 
C     4.5951719    0.6780706    0.0243265 
H     3.4853671    2.2255369   -1.0509902 
H     3.9334727    0.8161691   -2.0401810 
C     4.2829799    1.2639321    1.3961916 
N     5.9392637    1.0429107   -0.4574339 
H     4.5461087   -0.4309140    0.1418892 
H     6.0304725    2.0859996   -0.5072799 
H     6.6578780    0.7023666    0.2261491 
H    -2.0346271    1.7711068    1.7424208 
H    -1.7844736   -0.3655388    0.5363312 
H    -0.1918034    3.3872303    1.7599729 
H     1.8930908    2.8924263    0.5830906 
H     2.4879818   -1.3940819   -1.8322697 
O     3.9354464    0.4254187    2.4451782 
O     4.3199714    2.6367513    1.6110097 
H     5.2810505    2.9245050    1.7176642 
