27
Energy =
C    -0.9897849    3.4000854    0.1819174 
C    -1.2860397    2.0709150    0.2071173 
C    -0.2705315    1.1855922    0.1433671 
C     0.3087235    3.8173896    0.1023110 
C     1.3293566    2.9084106    0.0211458 
C     1.0007011    1.5768528    0.0407549 
N    -0.3718267   -0.2307333    0.1206848 
C     1.7923339    0.4920169   -0.0844284 
C     1.0033225   -0.5989377   -0.0455817 
H    -1.2224045   -0.8358741    0.1937448 
C     3.2605465    0.4373248   -0.4935681 
C     4.1780171    1.5141039    0.1254438 
H     3.3127208    0.5241616   -1.6001429 
H     3.6742544   -0.5603178   -0.2251903 
C     4.1305529    1.4837403    1.6451985 
N     3.8640175    2.8586332   -0.4253771 
H     5.2290589    1.2572046   -0.1385888 
H     4.4552889    3.0094234   -1.2840344 
H     2.7106898    2.9471620   -0.7720496 
H    -1.7903243    4.1330267    0.2432386 
H    -2.3126357    1.7272121    0.2746602 
H     0.5353022    4.8809141    0.1266971 
H     2.5427672    3.3299969    0.1213911 
H     1.3441694   -1.6183658   -0.2123610 
O     3.3123369    2.3550729    2.3603704 
O     4.8598437    0.5231753    2.3378826 
H     4.7016789    0.6426828    3.3305538 
