27
Energy =
C    -1.3376608    2.7021898    0.4793280 
C    -1.2199948    1.3472015    0.3830904 
C    -0.0081073    0.8296929    0.0919759 
C    -0.2466681    3.5043151    0.2868643 
C     0.9683211    2.9569448   -0.0041781 
C     1.0604066    1.6052566   -0.0989442 
N     0.3308529   -0.5436886   -0.0381624 
C     2.1248269    0.8315216   -0.3627122 
C     1.7335914   -0.4540676   -0.3227751 
H    -0.2780091   -1.3895381    0.0479201 
C     3.5445804    1.2945891   -0.5995039 
C     4.2922791    1.5068766    0.7294115 
H     3.5312279    2.2342178   -1.1937896 
H     4.0885850    0.5423612   -1.2148725 
C     5.6252796    2.2009105    0.4981882 
N     4.4503460    0.2073355    1.4074428 
H     3.6975419    2.1906812    1.3802641 
H     5.1348204   -0.3828786    0.8743090 
H     4.8821898    0.3656317    2.3495077 
H    -2.3022142    3.1460124    0.7131319 
H    -2.0738475    0.6963197    0.5379052 
H    -0.3478057    4.5839805    0.3686888 
H     1.8338828    3.5956798   -0.1510479 
H     2.3917660   -1.3099923   -0.4543553 
O     6.6612060    1.5382362   -0.1459867 
O     5.7986093    3.5249716    0.8762802 
H     5.3549103    4.1257243    0.1976613 
