27
Energy =
C    -0.8564032    3.8569640    0.5050416 
C    -0.9927079    2.6499165    1.1246718 
C    -0.0695744    1.6968711    0.8779841 
C     0.1947421    4.0829638   -0.3406553 
C     1.1154422    3.1036606   -0.5724704 
C     0.9576525    1.9094934    0.0540553 
N    -0.0199270    0.3860990    1.4240379 
C     1.7155148    0.8034243    0.0006566 
C     1.1703947   -0.1235272    0.8077188 
H    -0.6731745   -0.0781881    2.0965961 
C     2.9984076    0.6230982   -0.7780376 
C     4.2061297    1.2563156   -0.0558264 
H     2.8743221    1.0696594   -1.7901529 
H     3.1990973   -0.4609386   -0.9377588 
C     5.4477353    1.3045988   -0.9556561 
N     4.4628178    0.5080617    1.1918802 
H     3.9773128    2.3221394    0.1811678 
H     5.3904762    0.8094594    1.5900813 
H     3.7551685    0.7923199    1.9087070 
H    -1.5857802    4.6432054    0.6852166 
H    -1.8188028    2.4549021    1.8003893 
H     0.2980887    5.0486451   -0.8305947 
H     1.9504878    3.2859142   -1.2429933 
H     1.5825444   -1.1146568    0.9878682 
O     5.4491641    0.6713234   -2.1991784 
O     6.5941537    1.9857845   -0.5308849 
H     6.4830469    2.4225274    0.3804021 
