27
Energy =
C    -1.3488194    2.9179836    0.5727006 
C    -1.3519627    1.7673474   -0.1589845 
C    -0.1679072    1.1803904   -0.4326555 
C    -0.1684357    3.4533997    1.0098918 
C     1.0153404    2.8415758    0.7185912 
C     0.9871447    1.6963565   -0.0100190 
N     0.0494808   -0.0081996   -1.1791931 
C     1.9972462    0.9172273   -0.4268697 
C     1.4797863   -0.1030792   -1.1339687 
H    -0.6441455   -0.6495195   -1.6278465 
C     3.4740104    1.1459666   -0.1887057 
C     4.0653968    2.2027060   -1.1421783 
H     4.0327437    0.1902962   -0.3022728 
H     3.6191944    1.4644414    0.8657761 
C     4.0798151    1.6973800   -2.5884470 
N     5.4137524    2.5471477   -0.6598795 
H     3.4293394    3.1190953   -1.1387092 
H     5.8392868    3.2157616   -1.3399769 
H     5.3321411    3.0773473    0.2464753 
H    -2.2883379    3.4131616    0.8057160 
H    -2.2781921    1.3313288   -0.5180465 
H    -0.1726004    4.3733438    1.5893621 
H     1.9517679    3.2707152    1.0619606 
H     2.0610905   -0.8713649   -1.6396180 
O     2.9022730    1.6669093   -3.3158027 
O     5.2336701    1.2172808   -3.1919880 
H     5.9986195    1.5236911   -2.6079882 
