27
Energy =
C    -1.2669544    2.4468821   -1.1162184 
C    -1.1795721    1.1825222   -0.6140060 
C     0.0372757    0.7166599   -0.2621122 
C    -0.1421893    3.2119286   -1.2560561 
C     1.0765606    2.7180436   -0.8936163 
C     1.1398284    1.4567414   -0.3940838 
N     0.3442245   -0.5640572    0.2708728 
C     2.1986457    0.7470831    0.0295700 
C     1.7658109   -0.4635262    0.4245093 
H    -0.2958582   -1.3612768    0.4911738 
C     3.6485409    1.1782594    0.0290180 
C     4.3619673    0.7558989   -1.2682204 
H     4.1597470    0.7151155    0.9033831 
H     3.7311615    2.2781036    0.1674098 
C     5.8640230    0.9552560   -1.1441818 
N     3.7879938    1.4964013   -2.4069643 
H     4.2121336   -0.3386177   -1.4237901 
H     4.0747191    2.5030073   -2.3343632 
H     4.2259741    1.1453053   -3.2913945 
H    -2.2344404    2.8471424   -1.4087102 
H    -2.0613590    0.5614041   -0.4991168 
H    -0.2188249    4.2182945   -1.6604599 
H     1.9680881    3.3254380   -1.0106999 
H     2.4015629   -1.2635607    0.7977922 
O     6.6792160   -0.1145122   -0.8001760 
O     6.4313718    2.2106527   -1.3186283 
H     7.4300284    2.1339412   -1.1713243 
