27
Energy =
C    -1.1658678    2.6560691    0.3124811 
C    -1.1391783    1.2944435    0.3739033 
C     0.0219158    0.6636236    0.1007474 
C    -0.0375954    3.3535609   -0.0200846 
C     1.1254380    2.6948994   -0.2919875 
C     1.1295220    1.3390147   -0.2196341 
N     0.2546596   -0.7397027    0.1046950 
C     2.1191640    0.4652493   -0.4435572 
C     1.6558366   -0.7934289   -0.2364287 
H    -0.4063066   -1.5337248    0.2602685 
C     3.5464409    0.7167292   -0.8849288 
C     4.5757790   -0.0101382    0.0363283 
H     3.7692338    1.8024815   -0.9295377 
H     3.6521728    0.3283714   -1.9214698 
C     4.1645543   -1.4412313    0.4288982 
N     4.8329538    0.8031991    1.2364620 
H     5.5283368   -0.1234667   -0.5296221 
H     5.1393703    1.7669048    0.9662889 
H     3.9431436    0.8968820    1.7860930 
H    -2.0884312    3.1887348    0.5286969 
H    -2.0253204    0.7260540    0.6354230 
H    -0.0681249    4.4393450   -0.0676656 
H     2.0172638    3.2536410   -0.5557813 
H     2.3321454   -1.8062089   -0.6343909 
O     2.8013076   -1.8071206    0.4182269 
O     5.0900635   -2.3625384    0.8996906 
H     5.9728247   -1.9186926    1.1051154 
