27
Energy =
C    -0.4473837    3.0245058    1.2349938 
C    -0.8440559    2.0441839    0.3748893 
C     0.1062693    1.3521155   -0.2880586 
C     0.8824733    3.2877695    1.4131299 
C     1.8238286    2.5747269    0.7312393 
C     1.4060777    1.6037035   -0.1214199 
N    -0.0924653    0.2911498   -1.2119696 
C     2.1185425    0.7660632   -0.8932337 
C     1.2613037   -0.0339641   -1.5517399 
H    -0.9874815   -0.1335233   -1.5468363 
C     3.6263519    0.6690404   -0.9898766 
C     4.2016737   -0.3753169   -0.0036793 
H     4.0946439    1.6617448   -0.8032691 
H     3.8956871    0.3851079   -2.0311683 
C     3.9591423    0.0357536    1.4508258 
N     5.6452299   -0.5766880   -0.2508199 
H     3.6691662   -1.3407371   -0.1641622 
H     5.8481107   -1.5909403   -0.4132026 
H     5.9988018   -0.0498888   -1.0839523 
H    -1.1904227    3.5951786    1.7860694 
H    -1.8945462    1.8191983    0.2265694 
H     1.1935476    4.0644488    2.1076996 
H     2.8788979    2.7816360    0.8853385 
H     1.5491130   -0.8241692   -2.2413451 
O     4.7378847    1.0327517    2.0278947 
O     2.9167394   -0.5112764    2.2037292 
H     2.3386013   -1.1376042    1.6660050 
