27
Energy =
C    -0.3840357    3.0000392    1.2295213 
C    -0.8036072    1.9317456    0.4941587 
C     0.1245488    1.1975062   -0.1545901 
C     0.9463279    3.3075215    1.3006045 
C     1.8653717    2.5498682    0.6363412 
C     1.4250368    1.4905886   -0.0911735 
N    -0.1006469    0.0502402   -0.9616393 
C     2.1128643    0.5979361   -0.8230228 
C     1.2392871   -0.2789787   -1.3492061 
H    -1.0018393   -0.4189957   -1.2088400 
C     3.6141525    0.5250903   -1.0074371 
C     4.2670426   -0.4548578   -0.0054268 
H     4.0697591    1.5342012   -0.9015925 
H     3.8249984    0.1919260   -2.0470028 
C     4.1103980    0.0150301    1.4321623 
N     5.6865789   -0.6451771   -0.3496243 
H     3.7523213   -1.4422922   -0.0590969 
H     5.7786984   -0.9616836   -1.3426788 
H     6.1940612    0.2685358   -0.2531034 
H    -1.1095768    3.6068441    1.7651667 
H    -1.8546137    1.6713671    0.4312870 
H     1.2749435    4.1573791    1.8937510 
H     2.9209718    2.7945760    0.7025576 
H     1.5070904   -1.1304528   -1.9701204 
O     3.3103753   -0.6964786    2.3185513 
O     4.7300765    1.1818315    1.8664922 
H     4.5120050    1.3088103    2.8461890 
