27
Energy =
C    -1.2300513    2.8319776   -0.5362878 
C    -1.2131955    1.4868606   -0.3171623 
C    -0.0176822    0.8749703   -0.1851345 
C    -0.0580999    3.5313069   -0.6181665 
C     1.1382382    2.8904928   -0.4814065 
C     1.1319374    1.5487724   -0.2637769 
N     0.2164165   -0.5068582    0.0437834 
C     2.1550323    0.6920354   -0.0991586 
C     1.6482718   -0.5398149    0.0859131 
H    -0.4714135   -1.2874228    0.1503371 
C     3.6361709    1.0090322   -0.1223404 
C     4.3306703    0.4825588   -1.4057603 
H     4.0980509    0.5342317    0.7733118 
H     3.8254290    2.0986858   -0.0168584 
C     5.8582909    0.5679323   -1.3055482 
N     3.8486210    1.2000033   -2.6064218 
H     4.1053616   -0.6053457   -1.4986711 
H     3.5190667    0.5062783   -3.3185818 
H     3.0276807    1.8172575   -2.4088846 
H    -2.1794662    3.3503349   -0.6458888 
H    -2.1336916    0.9169885   -0.2493951 
H    -0.0799085    4.6046114   -0.7927880 
H     2.0637534    3.4531110   -0.5487390 
H     2.2376255   -1.4400888    0.2462238 
O     6.4628597    1.0505068   -0.1483586 
O     6.6756184    0.1140214   -2.3406262 
H     6.1299548   -0.1412990   -3.1500820 
