27
Energy =
C    -1.4257158    1.9455204    0.2378923 
C    -1.1924653    0.7280214   -0.3286231 
C     0.0876813    0.3429401   -0.5134519 
C    -0.3800650    2.7460379    0.6052364 
C     0.9054198    2.3347997    0.4083359 
C     1.1152991    1.1177232   -0.1591775 
N     0.5414740   -0.8764893   -1.0827799 
C     2.2642683    0.4872111   -0.4593436 
C     1.9618209   -0.7019226   -1.0100021 
H    -0.0134116   -1.6807284   -1.4556898 
C     3.6758180    0.9936873   -0.2487472 
C     4.3552705    1.3991891   -1.5822852 
H     4.2651447    0.1840641    0.2398775 
H     3.7028389    1.8496559    0.4593142 
C     5.8518531    1.6128381   -1.4129831 
N     3.7297758    2.6082987   -2.1604241 
H     4.2741106    0.5454459   -2.2958534 
H     3.4191795    2.4047940   -3.1397870 
H     2.8721393    2.9042705   -1.6399099 
H    -2.4473695    2.2804002    0.3991611 
H    -2.0105160    0.0802874   -0.6249532 
H    -0.5741074    3.7154928    1.0582183 
H     1.7297999    2.9757226    0.7038982 
H     2.6889343   -1.4346311   -1.3533789 
O     6.4184897    1.7912983   -0.1559379 
O     6.6730731    1.6544448   -2.5301660 
H     6.6270495    2.5874482   -2.9128169 
