27
Energy =
C    -0.7939585    2.1943018    1.5651278 
C    -1.0036730    1.1072613    0.7698265 
C     0.0078721    0.6860150   -0.0176020 
C     0.4171167    2.8291521    1.5593233 
C     1.4257697    2.3826686    0.7570756 
C     1.1921752    1.3017809   -0.0320646 
N     0.0017825   -0.4292204   -0.8975988 
C     2.0060112    0.6674147   -0.8906049 
C     1.3399793   -0.3768674   -1.4133363 
H    -0.7694286   -1.1022847   -1.1125344 
C     3.4551135    0.9897368   -1.1929826 
C     4.4860183    0.1163970   -0.4139405 
H     3.6561686    2.0631495   -0.9939606 
H     3.5912969    0.8759417   -2.2931172 
C     5.5126924   -0.4930702   -1.3622968 
N     3.8152649   -0.9223274    0.3933724 
H     5.0653194    0.7820947    0.2681253 
H     4.5315881   -1.5900526    0.7702876 
H     3.3741533   -0.4743069    1.2310482 
H    -1.5918231    2.5548371    2.2095095 
H    -1.9559996    0.5878451    0.7678686 
H     0.5777549    3.6926845    2.2003282 
H     2.3877646    2.8851429    0.7635118 
H     1.7787773   -1.1115821   -2.0881206 
O     5.1055588   -1.2291520   -2.4685587 
O     6.8703309   -0.3019547   -1.1406029 
H     7.1327325    0.6167783   -1.4648980 
