27
 energy: -5.219974476869 gnorm: 0.000879584372 xtb: 6.6.0 (2ccbbd7)
C           -1.17294664397495        2.60577419737217       -0.38374238552831
C           -1.15878481791898        1.25674481206186       -0.15831141185585
C            0.07739747755214        0.60155855507384       -0.09018289727161
C            0.02052153167167        3.32627918521399       -0.54983129575827
C            1.23543000741688        2.70419848118520       -0.48420700319954
C            1.27941444458977        1.31980204161394       -0.24375807216135
N            0.40796023700297       -0.72752863556928        0.10302606564801
C            2.34874712845451        0.38076906727127       -0.11850240253492
C            1.77490342937672       -0.85051215581600        0.08439590692419
H           -0.26821440133082       -1.48090613002575        0.24163573631111
C            3.81410930735522        0.64668860005767       -0.23256040925720
C            4.28779260101274        0.88359408120951       -1.67640590976887
H            4.35710198933562       -0.20012780651383        0.20011740631038
H            4.07114549788773        1.51893826785418        0.37760834642009
C            3.93192702487849        2.28391996972704       -2.14258742422982
N            3.74737610968129       -0.11220593290154       -2.58995796648809
H            5.38658569881853        0.81734444683160       -1.71804433942743
H            4.02096723936635       -1.04058100639026       -2.29941147917699
H            2.73994685558277       -0.07716721228077       -2.54336220102608
H           -2.11493144217151        3.12571787385030       -0.44076774662268
H           -2.06773977041147        0.69557075501276       -0.03623296904151
H           -0.02402458050312        4.38556631316155       -0.74182342816351
H            2.15034973930560        3.24299937590701       -0.65197398619536
H            2.30984420742941       -1.77904433333835        0.20132341386046
O            4.00673038945995        3.18857174287428       -1.33843625740783
O            3.56307792288787        2.41795309659445       -3.43863905287850
H            3.62437930475290        1.54945780039871       -3.89795485252554
