27
Energy =
C    -1.2376228    1.7388195    0.9090005 
C    -1.1885421    0.6810538    0.0499083 
C    -0.0183655    0.4112474   -0.5659027 
C    -0.1210938    2.4959463    1.1347394 
C     1.0503659    2.2019374    0.5010447 
C     1.0734381    1.1477671   -0.3539174 
N     0.2485373   -0.6435595   -1.4803594 
C     2.0848765    0.6563487   -1.0850584 
C     1.6374250   -0.4174200   -1.7599626 
H    -0.3972128   -1.3802326   -1.8469520 
C     3.5095508    1.1686579   -1.1230478 
C     4.3999091    0.7027400    0.0682158 
H     3.4863533    2.2797168   -1.1492594 
H     3.9650927    0.8698893   -2.0955965 
C     5.6875736    0.0526824   -0.4234131 
N     3.6546700   -0.1608143    1.0062177 
H     4.7221839    1.6156801    0.6222591 
H     3.4681831   -1.0940720    0.5689740 
H     4.2421907   -0.3335606    1.8572197 
H    -2.1665591    1.9778462    1.4203836 
H    -2.0631355    0.0669031   -0.1353346 
H    -0.1654847    3.3332669    1.8268467 
H     1.9404415    2.7950200    0.6896817 
H     2.2469074   -1.0415667   -2.4108516 
O     6.9177072    0.5841361   -0.0648151 
O     5.6471246   -1.0564726   -1.2599426 
H     5.4444885   -1.8739065   -0.7044766 
