27
Energy =
C    -0.4940209    3.7508135    1.3365304 
C     0.1199460    2.8980056    2.2071849 
C     0.9531356    1.9610479    1.7134648 
C    -0.2639410    3.6633949   -0.0104439 
C     0.5789163    2.7180974   -0.5211055 
C     1.1802101    1.8487300    0.4143608 
N     1.6950417    0.9889315    2.4362103 
C     2.0637094    0.8366905    0.1754654 
C     2.3735772    0.3013082    1.3713488 
H     1.7284708    0.8155947    3.4669428 
C     2.5109370    0.2233550   -1.1904578 
C     2.8248177    1.2084562   -2.4121511 
H     1.7129765   -0.4809036   -1.5080432 
H     3.4203376   -0.3963340   -1.0089567 
C     4.0761342    2.0422660   -2.1343332 
N     1.6342526    2.0286132   -2.8024721 
H     3.1424076    0.5883345   -3.2855912 
H     0.9751350    1.3678249   -3.3139398 
H     1.3729471    2.1524550   -1.6829348 
H    -1.1659139    4.5151919    1.7190246 
H    -0.0513312    2.9697238    3.2758982 
H    -0.7489353    4.3639019   -0.6850741 
H     0.7720673    2.7605688   -1.8632319 
H     3.0144244   -0.5650904    1.5166792 
O     5.3133428    1.4269828   -2.2729369 
O     4.0374198    3.3656675   -1.7037319 
H     3.0882815    3.6951152   -1.6522829 
