27
Energy =
C    -1.4536005    2.3035344    0.6332419 
C    -1.3477566    1.5515449   -0.4989577 
C    -0.1216866    1.1322401   -0.8763375 
C    -0.3375074    2.6207758    1.3568022 
C     0.8911766    2.1841813    0.9535743 
C     0.9725195    1.4329971   -0.1740650 
N     0.2040491    0.3518477   -2.0176131 
C     2.0446663    0.8878850   -0.7730882 
C     1.6271079    0.2463203   -1.8796755 
H    -0.4256635   -0.0417215   -2.7542249 
C     3.4926606    0.9815817   -0.3318799 
C     4.1896261    2.2261258   -0.9248443 
H     3.9934961    0.0546850   -0.6812132 
H     3.5595713    1.0001086    0.7770071 
C     5.6972045    2.3533317   -0.6188483 
N     3.4409522    3.4202160   -0.4833046 
H     4.1321950    2.1499867   -2.0367274 
H     3.7822376    3.7236080    0.4607734 
H     3.6696848    4.2174169   -1.1268618 
H    -2.4292460    2.6570538    0.9579706 
H    -2.2222512    1.2956660   -1.0876106 
H    -0.4304706    3.2298035    2.2533723 
H     1.7822916    2.4488506    1.5126854 
H     2.2748943   -0.2756739   -2.5803963 
O     6.3044467    3.5870279   -0.8173258 
O     6.5091040    1.2941307   -0.2043283 
H     6.0354295    0.4140302   -0.1237667 
