27
Energy =
C    -1.4785053    2.7964760    0.2514266 
C    -1.3610713    1.7523165   -0.6172273 
C    -0.1438777    1.1940894   -0.7856176 
C    -0.3824044    3.2584985    0.9259759 
C     0.8376044    2.6763542    0.7377423 
C     0.9303576    1.6359299   -0.1288074 
N     0.1926418    0.1112899   -1.6413430 
C     1.9969726    0.9011546   -0.4847460 
C     1.5988768   -0.0094557   -1.3910762 
H    -0.4215211   -0.4462860   -2.2784302 
C     3.4231707    1.0626087   -0.0051308 
C     4.1818286    2.1190318   -0.8285885 
H     3.9405297    0.0797054   -0.0854964 
H     3.4459574    1.3354558    1.0722170 
C     5.6854058    1.9725720   -0.6493669 
N     3.6955684    3.4607781   -0.4507137 
H     3.9964300    1.9386733   -1.9156961 
H     4.1276856    3.7389479    0.4648638 
H     4.0509301    4.1544609   -1.1521587 
H    -2.4470557    3.2662732    0.4040868 
H    -2.2194789    1.3766627   -1.1637561 
H    -0.4836633    4.0975110    1.6108339 
H     1.7136244    3.0491981    1.2588357 
H     2.2490607   -0.7342543   -1.8767219 
O     6.2698516    2.1352570    0.6018244 
O     6.4849796    1.6430566   -1.7339053 
H     7.4457398    1.5921976   -1.4199312 
