27
Energy =
C    -1.4507586    2.3557664   -0.4657195 
C    -1.3561292    1.1760233    0.2116359 
C    -0.1385199    0.6080650    0.3394966 
C    -0.3316997    2.9398659   -0.9925982 
C     0.8881548    2.3460101   -0.8478319 
C     0.9562006    1.1691354   -0.1757109 
N     0.1797005   -0.6014498    1.0139808 
C     2.0190700    0.3997058    0.1039620 
C     1.5998102   -0.6575752    0.8214637 
H    -0.4517870   -1.2694770    1.5127471 
C     3.4621696    0.6750932   -0.2665400 
C     4.1793657    1.7276236    0.6339879 
H     3.4979738    1.0116362   -1.3250135 
H     4.0152258   -0.2927902   -0.2539743 
C     5.4640659    1.1725911    1.2299578 
N     3.2767479    2.2663242    1.6707150 
H     4.5066323    2.5703327   -0.0190961 
H     3.0939695    1.5190656    2.3851242 
H     3.7684699    3.0372591    2.1828406 
H    -2.4190241    2.8362285   -0.5819865 
H    -2.2322772    0.7028455    0.6418478 
H    -0.4141084    3.8847775   -1.5241724 
H     1.7805206    2.8138519   -1.2518749 
H     2.2462632   -1.4358753    1.2230399 
O     5.4415184    0.0257753    2.0152534 
O     6.6741106    1.8060441    0.9887602 
H     7.4049581    1.2982615    1.4712758 
