27
Energy =
C    -1.3397972    2.9060740   -0.4784917 
C    -1.3879833    1.5743023   -0.2088775 
C    -0.2624709    0.8865394    0.0650974 
C    -0.1696199    3.5958565   -0.4596650 
C     1.1260816    2.9341752   -0.0178612 
C     0.9338002    1.4582737    0.1050824 
N    -0.1330773   -0.5299748    0.0701486 
C     1.8886366    0.5212498    0.0118229 
C     1.2919200   -0.6815262    0.0209476 
H    -0.8788311   -1.2637980    0.0885835 
C     3.3977369    0.7497105   -0.0832396 
C     3.9540377    2.0032198   -0.8757130 
H     3.8510687   -0.1580922   -0.5392545 
H     3.7757210    0.7613183    0.9640341 
C     4.8542272    2.8429926    0.0210470 
N     2.9040287    2.8175157   -1.5381275 
H     4.6335348    1.6259017   -1.6739805 
H     2.0404073    2.8626213   -0.7948073 
H     3.2394860    3.7997578   -1.6917939 
H    -2.2568709    3.4254351   -0.7473316 
H    -2.3298857    1.0406835   -0.2865690 
H    -0.1607117    4.6559181   -0.6990552 
H     1.4586808    3.3607436    0.9523304 
H     1.8076129   -1.6370945   -0.0422207 
O     6.2093618    2.5474370    0.1142536 
O     4.3264129    3.8711143    0.7936456 
H     5.0690478    4.2899732    1.3382596 
