27
Energy =
C    -0.3443716    3.0026155    1.2845399 
C    -0.8005023    1.9373488    0.5668887 
C     0.0966332    1.1926071   -0.1127969 
C     0.9906887    3.2966042    1.3075934 
C     1.8778226    2.5290050    0.6121494 
C     1.4014949    1.4728652   -0.0968463 
N    -0.1686018    0.0455023   -0.9076881 
C     2.0536915    0.5715826   -0.8505070 
C     1.1530730   -0.2981380   -1.3419460 
H    -1.0826372   -0.4152746   -1.1211120 
C     3.5462667    0.4840947   -1.0927702 
C     4.2332312   -0.4933921   -0.1101026 
H     4.0160517    1.4897240   -1.0161239 
H     3.7105313    0.1337305   -2.1353459 
C     4.1457876    0.0031390    1.3241841 
N     5.6450777   -0.7126220   -0.4913669 
H     3.6849696   -1.4652809   -0.1389115 
H     5.8030621   -1.7313546   -0.6773882 
H     5.9140152   -0.2012918   -1.3649544 
H    -1.0438507    3.6168570    1.8456863 
H    -1.8554927    1.6869773    0.5427281 
H     1.3495986    4.1421347    1.8893484 
H     2.9375132    2.7624518    0.6431951 
H     1.3897841   -1.1539676   -1.9694787 
O     3.4224540   -0.7113700    2.2703990 
O     4.7897890    1.1725974    1.7082437 
H     5.7375380    0.9318537    1.9580983 
