27
 energy: -5.222747515556 gnorm: 0.000712022130 xtb: 6.4.0 (d4b70c2)
C        -1.13984696598961    2.61052438039348    0.36894724556311
C        -1.13516986003341    1.25201712040181    0.20802926341664
C         0.07193863424724    0.62126024966793   -0.11884645103672
C         0.03465866813224    3.36519465139509    0.21543784470057
C         1.22389050487362    2.76875467276821   -0.10155544721103
C         1.25269609497269    1.37402943866421   -0.27549990899223
N         0.39125043084052   -0.70750840394888   -0.33957763479247
C         2.29391598033716    0.45473252241141   -0.60233602993263
C         1.73155298277828   -0.79672140511635   -0.62087092765308
H        -0.26557965897510   -1.48645073090784   -0.26344819325993
C         3.73381751411935    0.76361725334648   -0.83207774747320
C         4.63754655905170    0.25470990434150    0.29650948634665
H         3.86139898250745    1.84321014425396   -0.95622388416457
H         4.04536832084321    0.30598650149228   -1.77729320269321
C         4.55899316766056   -1.25488776436276    0.38850610009457
N         4.30674191446809    0.85059514415893    1.58682112480150
H         5.68456276084375    0.51637644342106    0.07525953052257
H         3.93343615699187    1.78550672626430    1.47433631450498
H         3.59743649961249    0.27777259012373    2.03460703089844
H        -2.06030881866145    3.11286338174219    0.61729516274762
H        -2.02964501924643    0.66683932692966    0.32436981483303
H        -0.00488252395746    4.43344770067769    0.34980553974369
H         2.12405971368049    3.34481025963965   -0.22081832153353
H         2.27428002110964   -1.71207042388244   -0.79549553662495
O         4.80211591037777   -1.92400195700233   -0.59134786907475
O         4.18259594004270   -1.78187123797799    1.57318036081041
H         4.19155539240434   -2.75364149413212    1.46939794143246
