27
Energy =
C    -1.3170958    3.1078573    0.4947298 
C    -1.2046708    1.8743782    1.0632935 
C    -0.0851413    1.1594514    0.8249823 
C    -0.3131932    3.5968584   -0.2938495 
C     0.8090981    2.8540432   -0.5207057 
C     0.9002159    1.6273510    0.0554635 
N     0.2278607   -0.1330196    1.3235215 
C     1.8824138    0.7109211   -0.0047926 
C     1.5202997   -0.3460789    0.7435952 
H    -0.3371730   -0.7586208    1.9424463 
C     3.2019147    0.8183561   -0.7393982 
C     4.3326290    1.3268680    0.1742135 
H     3.1209795    1.4808781   -1.6293258 
H     3.4718687   -0.1854266   -1.1334882 
C     4.1350581    2.7864555    0.5529524 
N     5.6140918    1.1137002   -0.5210540 
H     4.3247108    0.7631024    1.1378988 
H     6.3751785    1.6236157   -0.0097234 
H     5.8635756    0.0982987   -0.4773825 
H    -2.2066896    3.7067558    0.6736768 
H    -1.9899978    1.4733820    1.6949922 
H    -0.4069852    4.5861804   -0.7369004 
H     1.6093939    3.2506028   -1.1390009 
H     2.1226719   -1.2382767    0.8996979 
O     3.8725469    3.7523698   -0.4129711 
O     4.2285717    3.1744941    1.8802829 
H     4.0869740    4.1752517    1.9290439 
