27
Energy =
C    -0.9184821    2.3243642   -1.9563840 
C    -0.9066333    1.0236297   -1.5500178 
C     0.1537922    0.5846999   -0.8400191 
C     0.1213331    3.1537469   -1.6408438 
C     1.1803905    2.6872575   -0.9190028 
C     1.1755271    1.3847210   -0.5296910 
N     0.3479944   -0.7161709   -0.3097526 
C     2.0836163    0.6956363    0.1849229 
C     1.6108508   -0.5579301    0.3510177 
H    -0.2610522   -1.5629745   -0.3858487 
C     3.3687771    1.2701388    0.7678803 
C     4.4862941    0.2257059    1.0426816 
H     3.1252436    1.8219480    1.7038820 
H     3.7625374    2.0198276    0.0489978 
C     4.3081288   -0.5207739    2.3733719 
N     5.8008125    0.8928390    0.9842451 
H     4.4609221   -0.5585870    0.2513467 
H     5.9755512    1.2575381    0.0168160 
H     5.8163689    1.7144442    1.6375841 
H    -1.7606779    2.7046759   -2.5291115 
H    -1.7274631    0.3544025   -1.7849402 
H     0.1020564    4.1920328   -1.9634703 
H     1.9978055    3.3542488   -0.6635417 
H     2.0901455   -1.3457768    0.9255059 
O     3.1062606   -0.4494162    3.0684792 
O     5.3113783   -1.3455597    2.8743283 
H     6.1529613   -1.2390417    2.3262209 
