27
Energy =
C    -0.2587482    3.4854405   -1.8055582 
C    -0.8190341    2.4416066   -1.1314041 
C     0.0008744    1.5598454   -0.5218553 
C     1.1006209    3.6248443   -1.8530358 
C     1.9082324    2.7205072   -1.2278708 
C     1.3289525    1.6871614   -0.5638012 
N    -0.3781718    0.4190347    0.2341113 
C     1.8897106    0.6795548    0.1253712 
C     0.9045572   -0.0910364    0.6215891 
H    -1.3316290    0.0462436    0.4491068 
C     3.3672942    0.4470250    0.3728038 
C     3.8587708    1.1186311    1.6707356 
H     3.9636591    0.8120384   -0.4893632 
H     3.5572693   -0.6484772    0.4351794 
C     3.1170192    0.5701845    2.8920503 
N     3.7462904    2.5816113    1.5331003 
H     4.9281552    0.8450758    1.8318413 
H     4.0489520    3.0127258    2.4344950 
H     4.4456439    2.9124873    0.8198634 
H    -0.8959464    4.2113751   -2.3048027 
H    -1.8957686    2.3183594   -1.0808748 
H     1.5399313    4.4629283   -2.3890801 
H     2.9860722    2.8375994   -1.2611434 
H     1.0549305   -0.9624107    1.2575332 
O     3.3288573   -0.7431621    3.2771781 
O     2.1762963    1.3150412    3.5881664 
H     2.2360268    2.2524791    3.2164805 
