27
 energy: -5.224828605466 gnorm: 0.000809031168 xtb: 6.4.0 (d4b70c2)
C        -1.34917913576203    2.86365748331362    0.03180831274170
C        -1.33845409477803    1.51600473072610    0.26582649345996
C        -0.12268134840353    0.82833040465286    0.16204613726060
C        -0.17257299482043    3.55171098309418   -0.30651172108587
C         1.02456289032687    2.89907396145851   -0.41190522868538
C         1.06168191578092    1.51376136660592   -0.17390460335454
N         0.20070370021893   -0.50680553695223    0.32571456436113
C         2.11548303231082    0.55042011269473   -0.19804794562364
C         1.54536170301547   -0.66090451834478    0.10390816207470
H        -0.45987517551289   -1.24253228714740    0.58320012134987
C         3.54263311991720    0.82055068986852   -0.55005810522552
C         4.57326225136775   -0.00133316528991    0.24215857603787
H         3.73968283824823    1.88610677117038   -0.39520312922812
H         3.68379489471180    0.63961105728287   -1.62043925988824
C         4.61027283487139   -1.43985383554815   -0.22520856716365
N         4.33510088597946    0.02530056945414    1.67854882322744
H         5.57900988557524    0.41489979706196    0.06945624287670
H         3.93036168635640    0.90837193845249    1.96541236228269
H         3.67880751371252   -0.71602922620591    1.90058351220228
H        -2.27554043993141    3.40871401716975    0.10668971991112
H        -2.23480472690618    0.98039643177063    0.52216439995054
H        -0.21681466623779    4.61289603459685   -0.48690457615093
H         1.92578116012259    3.42386059474230   -0.67381385257672
H         2.07673776022590   -1.59402284062625    0.18492639177825
O         3.89192333399705   -2.25486607195783    0.30758654688719
O         5.44323226645479   -1.72550895085693   -1.24848382669901
H         5.36000752358783   -2.68178363337336   -1.42857551679689
