27
 energy: -5.226917916256 gnorm: 0.000503861088 xtb: 6.4.0 (d4b70c2)
C        -1.44649996266383    2.45567955990136    0.12543799040115
C        -1.27303380286129    1.16033386227174   -0.27838472950908
C         0.03231897296044    0.67843466803118   -0.43790107014061
C        -0.34690833506393    3.29271594274867    0.37544272995788
C         0.93541418219253    2.84185030924055    0.22481700339650
C         1.13938991935329    1.51301221000621   -0.18660987379904
N         0.52154832005693   -0.55472825905473   -0.82993307141263
C         2.31559455145416    0.74118703595155   -0.42999746768175
C         1.89180843769060   -0.50236042778075   -0.82957864068207
H        -0.05470516717366   -1.35784454838454   -1.08893320125519
C         3.72249637256044    1.23713772543971   -0.32672287493260
C         4.75994540861568    0.16933179462531    0.05030588247938
H         3.75238700563682    2.03750041857980    0.41931466819316
H         4.00531530463126    1.69418984324916   -1.28061682657364
C         4.94223975933954   -0.83904039843239   -1.06298974529358
N         4.41862598919594   -0.50617556232541    1.29080627044707
H         5.73476365493500    0.66110808608710    0.20105912311391
H         3.52077502583605   -0.95075049438863    1.16768038720438
H         5.07784564880801   -1.25621064596325    1.44885399078094
H        -2.44360836729565    2.84314498462009    0.25400426977302
H        -2.10876984197173    0.51240599377015   -0.47272098395520
H        -0.51918150836469    4.30836664983397    0.69087002066931
H         1.77907119666236    3.48122699445168    0.41397447649229
H         2.53503767667014   -1.32962293750776   -1.07872214414721
O         4.40245103950171   -1.91992149251004   -0.99131459357001
O         5.70072757466865   -0.44898954592983   -2.11072780772991
H         5.72533882332556   -1.19560795343057   -2.74018919485510
