27
Energy =
C    -1.5714117    1.9379071    0.2267443 
C    -1.2064234    0.6664149   -0.0891243 
C     0.1018140    0.4053611   -0.2933326 
C    -0.6264408    2.9162337    0.3300387 
C     0.6904732    2.6286554    0.1218262 
C     1.0454665    1.3512906   -0.1903731 
N     0.6652448   -0.8539744   -0.6152375 
C     2.2565515    0.7880739   -0.4356945 
C     2.0536314   -0.5221376   -0.6794088 
H     0.1922647   -1.7757381   -0.7612220 
C     3.6738370    1.3631468   -0.3597133 
C     3.9010786    2.8412786   -0.7766111 
H     4.2995025    0.7541938   -1.0511413 
H     4.1047805    1.1564570    0.6436860 
C     3.9993546    3.8498245    0.3797468 
N     2.9239639    3.2404921   -1.8042791 
H     4.9231357    2.8982058   -1.2256189 
H     3.1438073    4.2158164   -2.1235147 
H     3.0409243    2.6293381   -2.6477995 
H    -2.6194121    2.1754758    0.3939831 
H    -1.9451237   -0.1235955   -0.1754957 
H    -0.9252964    3.9335271    0.5747089 
H     1.4098492    3.4285320    0.1884031 
H     2.8408398   -1.2484789   -0.8709651 
O     4.6484193    5.0543100    0.1433724 
O     3.4684998    3.6340373    1.6556943 
H     3.0187199    2.7416421    1.7622399 
