27
Energy =
C    -1.0703160    2.8563568   -1.3769587 
C    -1.2116327    1.6724607   -0.7158588 
C    -0.0989114    1.0505988   -0.2727083 
C     0.1732891    3.3868842   -1.5821715 
C     1.2830429    2.7383763   -1.1257979 
C     1.1179151    1.5627924   -0.4664989 
N    -0.0258096   -0.1891047    0.4172429 
C     2.0330289    0.7361779    0.0639481 
C     1.3919403   -0.3237167    0.5873559 
H    -0.7974610   -0.8263745    0.7213040 
C     3.5386801    0.9094043    0.0410166 
C     4.2401371    0.3293050   -1.2241835 
H     3.9603458    0.4114003    0.9419214 
H     3.7750027    1.9886364    0.1745897 
C     5.0647945    1.3879160   -1.9465801 
N     3.2791647   -0.3361882   -2.1248755 
H     4.9726265   -0.4375613   -0.8805991 
H     2.7293003    0.3897090   -2.6465898 
H     3.8128858   -0.8683090   -2.8527767 
H    -1.9496547    3.3779408   -1.7467777 
H    -2.1903392    1.2346394   -0.5506588 
H     0.2795917    4.3281997   -2.1167079 
H     2.2699787    3.1576747   -1.2996502 
H     1.8783075   -1.1786759    1.0507737 
O     4.4415048    2.4708111   -2.5535716 
O     6.4508479    1.3135262   -1.9575897 
H     6.8082734    1.6631695   -1.0809635 
