27
Energy =
C    -1.1218746    3.1130593   -0.5165872 
C    -1.1360504    1.7546528   -0.6287502 
C     0.0423808    1.0977155   -0.5979325 
C     0.0631191    3.7803478   -0.3749873 
C     1.2418933    3.0922936   -0.3481011 
C     1.2040090    1.7403798   -0.4628979 
N     0.2445463   -0.3048886   -0.6909643 
C     2.2055986    0.8440521   -0.4641150 
C     1.6717963   -0.3840868   -0.5881578 
H    -0.4589453   -1.0695645   -0.8112465 
C     3.6874919    1.1196133   -0.3162754 
C     4.1168492    1.1758941    1.1692960 
H     3.9626926    2.0666033   -0.8303946 
H     4.2476338    0.3108647   -0.8350420 
C     3.5777560    2.4132648    1.8624442 
N     5.5856571    1.1130859    1.2658804 
H     3.6807985    0.3135596    1.7270687 
H     5.9436310    0.2544969    0.7873768 
H     6.0020357    1.9504516    0.7904704 
H    -2.0579927    3.6661454   -0.5313029 
H    -2.0678793    1.2091189   -0.7345876 
H     0.0634682    4.8633816   -0.2732786 
H     2.1830437    3.6180777   -0.2202696 
H     2.2368925   -1.3133819   -0.5989386 
O     2.5354913    2.3108463    2.7710571 
O     4.0353179    3.6787688    1.5199887 
H     3.6175849    4.3371035    2.1661311 
