27
Energy =
C    -1.6109455    2.5608669   -0.2267123 
C    -1.4037334    1.2633185   -0.5888095 
C    -0.1684611    0.7456641   -0.4354628 
C    -0.5840875    3.3118316    0.2761603 
C     0.6698802    2.7814605    0.4119349 
C     0.8393847    1.4704408    0.0463912 
N     0.2724809   -0.5554315   -0.8009910 
C     1.9642646    0.7444029    0.0053518 
C     1.6715507   -0.4679305   -0.4948131 
H    -0.2746544   -1.3560101   -1.1936184 
C     3.3504341    1.2516311    0.3231829 
C     3.8206591    2.3208136   -0.7003312 
H     4.0743181    0.4066128    0.3369509 
H     3.3491565    1.6859324    1.3482902 
C     5.1743602    2.8881914   -0.3237493 
N     2.8306942    3.4095681   -0.8395305 
H     3.9771167    1.8246076   -1.6857020 
H     2.2321851    3.2378232   -1.6852548 
H     2.1558212    3.4695699    0.1510410 
H    -2.5998682    2.9999749   -0.3355138 
H    -2.2063797    0.6590319   -0.9981943 
H    -0.7686504    4.3406623    0.5773415 
H     1.5474569    3.5074012    0.9762824 
H     2.3963578   -1.2543839   -0.6943231 
O     5.5428600    3.0402964    1.0082288 
O     6.0467780    3.3141807   -1.3149841 
H     5.7614842    4.2382449   -1.6055551 
