27
Energy =
C    -1.4205885    1.9494112    1.4924323 
C    -0.9880514    0.6801090    1.7327639 
C     0.1901085    0.2937861    1.1999096 
C    -0.6700879    2.7985082    0.7289481 
C     0.5170155    2.3831143    0.2017493 
C     0.9318714    1.1115518    0.4536827 
N     0.8091527   -0.9713377    1.3293214 
C     2.0533466    0.4792114    0.0481837 
C     2.0061033   -0.7779046    0.5588252 
H     0.4815058   -1.8167749    1.8522618 
C     3.1142153    1.1668014   -0.8264469 
C     4.4292828    0.4661179   -1.3218786 
H     3.3875317    2.1037657   -0.2942615 
H     2.5823323    1.5174953   -1.7390982 
C     4.6522823   -0.9791968   -0.9076879 
N     5.5990884    1.3212313   -1.0282343 
H     4.3525303    0.3731226   -2.4327248 
H     5.5646548    2.1756499   -1.6349385 
H     5.5832329    1.6536936   -0.0344919 
H    -2.3664863    2.2869807    1.9088012 
H    -1.5718734   -0.0073331    2.3356518 
H    -1.0218788    3.8100212    0.5400189 
H     1.1063129    3.0637335   -0.4054427 
H     2.7310507   -1.5737870    0.4338673 
O     3.9887542   -1.9803568   -1.6029143 
O     5.3561237   -1.3383807    0.2380836 
H     5.9308143   -0.5742140    0.5534457 
