27
Energy =
C    -1.4684019    0.7445377   -0.9707296 
C    -0.5159692   -0.1992717   -1.2190394 
C     0.7460522    0.0421578   -0.8063484 
C    -1.1375060    1.9031615   -0.3228977 
C     0.1459317    2.1244935    0.0809468 
C     1.0756602    1.1685714   -0.1732266 
N     1.8816240   -0.7928471   -0.9804728 
C     2.3880668    1.1495210    0.1064113 
C     2.9052862    0.0025923   -0.3674597 
H     1.9534028   -1.7347342   -1.4296372 
C     3.1882096    2.2490426    0.7680740 
C     3.5939156    3.3419378   -0.2459181 
H     4.0989889    1.8180801    1.2429822 
H     2.5841787    2.6914117    1.5903542 
C     4.5533444    2.7960102   -1.3075999 
N     4.1823410    4.4864407    0.4699155 
H     2.6863058    3.7041860   -0.7798008 
H     3.4928427    4.8789884    1.1532057 
H     5.0262233    4.1763842    1.0113241 
H    -2.4935200    0.5763898   -1.2919458 
H    -0.7585572   -1.1211992   -1.7369492 
H    -1.8994330    2.6540697   -0.1299302 
H     0.4052938    3.0481194    0.5895454 
H     3.9584115   -0.2710613   -0.3289313 
O     5.8942577    2.6055515   -0.9903557 
O     4.1028585    2.3989512   -2.5684965 
H     3.1023752    2.4887375   -2.6642003 
