27
Energy =
C    -1.0799420    3.3523125   -0.4472921 
C    -1.2965338    2.0128007   -0.5775729 
C    -0.2362761    1.1819498   -0.4944121 
C     0.1843750    3.8286012   -0.2371460 
C     1.2399721    2.9681776   -0.1547912 
C     1.0012576    1.6374409   -0.2899291 
N    -0.2469373   -0.2347697   -0.5997823 
C     1.8512904    0.5969662   -0.2488167 
C     1.1444623   -0.5327991   -0.4307571 
H    -1.0549187   -0.8802770   -0.7546953 
C     3.3530202    0.6466440   -0.0526910 
C     4.1365953    0.8296033   -1.3764697 
H     3.6891234   -0.2885980    0.4460886 
H     3.6108892    1.4708784    0.6489572 
C     3.8633244    2.1792122   -2.0221385 
N     3.8946018   -0.2978203   -2.2970303 
H     5.2240137    0.8567988   -1.1356267 
H     3.9422261   -1.2081979   -1.7850037 
H     2.9326795   -0.2103130   -2.7101728 
H    -1.9156916    4.0442437   -0.5141577 
H    -2.2927078    1.6185690   -0.7461370 
H     0.3502633    4.8992103   -0.1401506 
H     2.2443963    3.3501921    0.0042089 
H     1.5634296   -1.5357720   -0.4516966 
O     4.4926997    3.3156966   -1.5270319 
O     2.9203648    2.3170268   -3.0337098 
H     2.8778011    3.2888125   -3.3096117 
