27
Energy =
C    -1.0651704    3.1561149    0.4775233 
C    -1.1126073    1.7956341    0.4111804 
C     0.0327320    1.1267470    0.1623833 
C     0.1194978    3.8137607    0.2952006 
C     1.2642753    3.1156665    0.0451561 
C     1.1942076    1.7596346   -0.0181632 
N     0.1964318   -0.2797968    0.0544404 
C     2.1581534    0.8506118   -0.2474501 
C     1.6011752   -0.3731606   -0.2124484 
H    -0.5165387   -1.0396431    0.1452481 
C     3.6251258    1.1096278   -0.5205275 
C     3.9878805    0.8617524   -2.0039381 
H     4.2197645    0.4250261    0.1279884 
H     3.9188314    2.1395298   -0.2266579 
C     5.5053226    0.8233372   -2.1819839 
N     3.3482400    1.8641220   -2.8891071 
H     3.6536305   -0.1662482   -2.2874635 
H     2.6788447    1.3816957   -3.5364859 
H     2.7778621    2.5670971   -2.3631463 
H    -1.9732174    3.7199456    0.6766304 
H    -2.0440053    1.2581835    0.5538425 
H     0.1493485    4.8995156    0.3502010 
H     2.1998123    3.6459351   -0.0980246 
H     2.1365587   -1.3078211   -0.3672606 
O     6.1789345   -0.3594404   -1.9054493 
O     6.2495447    1.9526562   -2.5170708 
H     5.6373543    2.7201792   -2.7475961 
