27
Energy =
C    -0.7867818    0.9928510    1.9695777 
C    -0.7301725   -0.0511436    1.0943955 
C     0.2352070   -0.0434310    0.1514072 
C     0.1205072    2.0128528    1.8854326 
C     1.0888879    1.9963607    0.9247707 
C     1.1221333    0.9489063    0.0609079 
N     0.4789880   -1.0343786   -0.8368226 
C     1.9654915    0.6946216   -0.9517866 
C     1.6246296   -0.4834310   -1.5012492 
H    -0.0384326   -1.9226886   -1.0278039 
C     3.1503809    1.5313671   -1.3766880 
C     4.4092746    1.1704044   -0.5658613 
H     2.9071311    2.6104927   -1.2629455 
H     3.3540648    1.3775926   -2.4604524 
C     5.5018620    2.2105731   -0.7570469 
N     4.8527806   -0.1825310   -0.9483868 
H     4.1616934    1.1865345    0.5224430 
H     5.2379833   -0.1543766   -1.9239571 
H     5.6488103   -0.4687456   -0.3296777 
H    -1.5539502    1.0119515    2.7396171 
H    -1.4377136   -0.8713084    1.1510271 
H     0.0716251    2.8397307    2.5900831 
H     1.8125941    2.8036289    0.8651483 
H     2.1653845   -0.9713301   -2.3097987 
O     6.0479276    2.8553383    0.3461531 
O     5.9527530    2.5370246   -2.0304320 
H     6.6828816    3.2332967   -1.9517940 
