27
Energy =
C    -1.6035231    2.0987836    0.1955300 
C    -1.2764899    1.4460269   -0.9558585 
C     0.0146511    1.1066517   -1.1542529 
C    -0.6376875    2.3983287    1.1161125 
C     0.6609937    2.0434984    0.8914335 
C     0.9630485    1.3915967   -0.2597685 
N     0.5617852    0.4339672   -2.2795371 
C     2.1442742    0.9385606   -0.7110140 
C     1.9467147    0.3712498   -1.9145967 
H     0.0817448    0.0802986   -3.1390300 
C     3.4921647    1.0575013   -0.0323849 
C     4.1560929    2.4209271   -0.3153732 
H     4.1483364    0.2328232   -0.3934292 
H     3.3900209    0.9058327    1.0642105 
C     5.6657523    2.3944278   -0.0487138 
N     3.4645363    3.4549580    0.4767636 
H     4.0469869    2.6450455   -1.4030197 
H     3.8030833    3.4208887    1.4701051 
H     3.7262204    4.4019382    0.1122127 
H    -2.6359182    2.3863208    0.3794915 
H    -2.0295079    1.2046153   -1.6984437 
H    -0.9058556    2.9271674    2.0282239 
H     1.4350937    2.2924624    1.6107657 
H     2.7251265   -0.0715596   -2.5324903 
O     6.2111081    1.4280927    0.7895334 
O     6.5149129    3.3414567   -0.6192086 
H     6.0011593    4.0407070   -1.1342752 
