27
Energy =
C    -1.5914444    2.2202318   -0.2357018 
C    -1.2570137    0.9280797    0.0435550 
C     0.0445333    0.5767371   -0.0193016 
C    -0.6224036    3.1267586   -0.5678170 
C     0.6865118    2.7469038   -0.6232695 
C     0.9948828    1.4547519   -0.3429130 
N     0.6034008   -0.7032296    0.2413246 
C     2.1876693    0.8403848   -0.3220396 
C     1.9972068   -0.4437689    0.0268793 
H     0.1264088   -1.5919130    0.5177939 
C     3.5351104    1.4714434   -0.5891480 
C     4.0527841    2.2646776    0.6289255 
H     3.4547867    2.1335989   -1.4797388 
H     4.2802245    0.6848337   -0.8497681 
C     5.2294042    3.1502824    0.2422772 
N     4.4158680    1.3202186    1.7004509 
H     3.2602028    2.9620785    0.9892488 
H     4.8539770    1.8521249    2.4905093 
H     3.5423151    0.8999435    2.0964048 
H    -2.6324672    2.5308468   -0.1928839 
H    -2.0124118    0.1969831    0.3110082 
H    -0.8962005    4.1558977   -0.7881064 
H     1.4552257    3.4680231   -0.8853636 
H     2.7880957   -1.1811801    0.1499253 
O     6.2248233    2.6890548   -0.6145312 
O     5.3168542    4.4408302    0.7504987 
H     6.1679766    4.8683287    0.4087378 
