27
Energy =
C    -1.1636859    3.2942503   -0.3395755 
C    -1.1771823    1.9792283    0.0183611 
C    -0.0013140    1.3195264    0.0753304 
C     0.0181737    3.9168300   -0.6307806 
C     1.1941402    3.2288617   -0.5662438 
C     1.1576537    1.9181777   -0.2078820 
N     0.2004486   -0.0428066    0.4219499 
C     2.1560436    1.0278010   -0.0723160 
C     1.6240847   -0.1497189    0.3008375 
H    -0.5020405   -0.7695115    0.6907644 
C     3.6343347    1.2577486   -0.3059213 
C     4.1291281    0.5761456   -1.6048089 
H     4.1900603    0.8420263    0.5655908 
H     3.8822020    2.3407343   -0.3339253 
C     5.6446475    0.5987137   -1.6699410 
N     3.5546483    1.2135776   -2.8090166 
H     3.8482227   -0.5036681   -1.5724168 
H     3.0335109    0.4949906   -3.3650782 
H     2.8616967    1.9612954   -2.5759682 
H    -2.0966442    3.8498761   -0.3928908 
H    -2.1059691    1.4702764    0.2528700 
H     0.0207438    4.9666679   -0.9146370 
H     2.1273345    3.7312163   -0.7988384 
H     2.1894043   -1.0611972    0.4848084 
O     6.3612840   -0.5899194   -1.6434059 
O     6.3335834    1.8020459   -1.7320970 
H     6.3827231    2.0793274   -2.7011805 
