27
Energy =
C    -1.6227656    1.5845210   -1.0960404 
C    -0.8709971    0.5349229   -1.5350123 
C     0.4048166    0.4385940   -1.1056356 
C    -1.0838867    2.5092023   -0.2440190 
C     0.2086997    2.3899485    0.1740918 
C     0.9371767    1.3359285   -0.2751705 
N     1.3524085   -0.5630366   -1.4452328 
C     2.2117640    1.0006199   -0.0199146 
C     2.4976921   -0.1217666   -0.7031033 
H     1.2457759   -1.4000198   -2.0631366 
C     3.1861112    1.7600372    0.8547881 
C     3.7742939    2.9938490    0.1263029 
H     4.0088969    1.0866730    1.1866308 
H     2.6551759    2.0750972    1.7789618 
C     4.8361378    2.6373312   -0.9214459 
N     4.3083741    3.9411663    1.1217004 
H     2.9643200    3.5023526   -0.4478752 
H     3.5385793    4.2797851    1.7475785 
H     5.0209674    3.4638679    1.7275382 
H    -2.6536019    1.6870654   -1.4262552 
H    -1.2805972   -0.2062065   -2.2131242 
H    -1.6872509    3.3448802    0.1015718 
H     0.6346048    3.1271867    0.8481150 
H     3.4665150   -0.6183863   -0.7141598 
O     5.2056026    1.3155003   -1.1433049 
O     5.4535457    3.6328260   -1.6742700 
H     5.2095181    4.5432962   -1.3121310 
