27
Energy =
C    -1.5004394    2.4586776   -0.2700648 
C    -1.3765674    1.1029663   -0.3213210 
C    -0.1410146    0.5690310   -0.2236115 
C    -0.3927597    3.2452698   -0.1238666 
C     0.8448259    2.6806137   -0.0278606 
C     0.9475162    1.3244188   -0.0803733 
N     0.1985359   -0.8037427   -0.2565759 
C     2.0465866    0.5437450   -0.0089587 
C     1.6265133   -0.7413656   -0.1142421 
H    -0.4280496   -1.6361197   -0.3552558 
C     3.4600192    1.1228139    0.1588777 
C     4.7673966    0.2430896    0.2319583 
H     3.4028339    1.7897925    1.0427472 
H     3.6021941    1.8209376   -0.6961003 
C     4.6115453   -1.2464787    0.0323422 
N     5.5543606    0.5132563    1.4577988 
H     5.3878195    0.5374011   -0.6479949 
H     6.5178457    0.8340838    1.2041083 
H     5.1397383    1.2322590    2.0908771 
H    -2.4838876    2.9156144   -0.3466105 
H    -2.2452634    0.4638467   -0.4382055 
H    -0.4988129    4.3267490   -0.0846655 
H     1.7200140    3.3130344    0.0864591 
H     2.2336792   -1.6359727   -0.1092939 
O     4.5076708   -1.7664718   -1.2513794 
O     4.4462664   -2.1112105    1.1055644 
H     4.4528985   -3.0594680    0.7545722 
