27
Energy =
C    -1.3892243    2.1462114   -0.4415627 
C    -1.1277225    0.8115704   -0.3550822 
C     0.1464333    0.4200009   -0.1489701 
C    -0.3785474    3.0577440   -0.3128971 
C     0.9099722    2.6457332   -0.1227152 
C     1.1442458    1.2966271   -0.0464406 
N     0.6305411   -0.9105446   -0.0575258 
C     2.3114571    0.6373245    0.0826775 
C     2.0396597   -0.6811203    0.0738941 
H     0.1016798   -1.8128358   -0.0900044 
C     3.7242645    1.1978170   -0.0389399 
C     3.9849835    2.5520911    0.6620282 
H     3.9667367    1.2981110   -1.1190252 
H     4.4402490    0.4537760    0.3812779 
C     3.7064629    2.4900961    2.1612898 
N     3.2578714    3.6511597   -0.0262108 
H     5.0800612    2.7566301    0.6069591 
H     3.8881819    4.0767516   -0.7499356 
H     2.2858134    3.2592924   -0.6159372 
H    -2.4101934    2.4879104   -0.5941842 
H    -1.9209502    0.0771926   -0.4490633 
H    -0.6024037    4.1212544   -0.3349994 
H     1.7934802    3.5387328    0.1672184 
H     2.7883688   -1.4705850    0.0722252 
O     4.5428783    1.7335181    2.9713021 
O     2.6169930    3.1271668    2.7413174 
H     1.7930293    2.5751399    2.5693614 
