27
Energy =
C    -0.8797685    3.1700529    0.4284026 
C    -1.0155461    1.8134131    0.4457529 
C     0.0795236    1.0582456    0.2184359 
C     0.3400801    3.7376576    0.1821947 
C     1.4317032    2.9524609   -0.0471909 
C     1.2727987    1.6041910   -0.0210664 
N     0.1519700   -0.3599644    0.1776522 
C     2.1717753    0.6279854   -0.2201339 
C     1.5410868   -0.5554541   -0.1213916 
H    -0.6024565   -1.0681072    0.3291260 
C     3.6342033    0.7984774   -0.5683762 
C     3.8413352    1.0306419   -2.0841889 
H     4.2029527   -0.1060458   -0.2525513 
H     4.0493887    1.6548807    0.0061081 
C     3.3212876   -0.1416035   -2.9072520 
N     5.2629478    1.3489849   -2.3697302 
H     3.2202589    1.8994083   -2.4049114 
H     5.8586708    1.3260329   -1.5087919 
H     5.6863674    0.6408906   -3.0188258 
H    -1.7457212    3.8024184    0.6072503 
H    -1.9765358    1.3467749    0.6334604 
H     0.4396549    4.8203029    0.1660676 
H     2.3984516    3.4043075   -0.2480274 
H     2.0085080   -1.5258629   -0.2830029 
O     3.8245968   -1.4235310   -2.7090133 
O     2.3329187    0.0605515   -3.8606234 
H     2.1167072   -0.8256295   -4.2977709 
