27
Energy =
C    -1.6390429    2.0033794   -0.0539865 
C    -1.2979489    0.7815484    0.4445451 
C     0.0086722    0.4453292    0.4761167 
C    -0.6712223    2.8585577   -0.5025234 
C     0.6431293    2.4962746   -0.4573942 
C     0.9603739    1.2707801    0.0370290 
N     0.5700243   -0.7599312    0.9701436 
C     2.1633133    0.6895949    0.1911199 
C     1.9687685   -0.5167949    0.7625793 
H     0.0957859   -1.5950483    1.3834384 
C     3.5057278    1.3316868   -0.1345378 
C     4.6670123    0.3406881   -0.3902086 
H     3.7747955    2.0124912    0.7026715 
H     3.3911886    1.9667341   -1.0388467 
C     4.3248589   -0.7050975   -1.4615294 
N     5.0783963   -0.2590618    0.8922984 
H     5.5271254    0.9147879   -0.8065531 
H     5.8367703   -0.9631754    0.7218629 
H     5.4955804    0.4806213    1.5052811 
H    -2.6843634    2.2992710   -0.0923683 
H    -2.0520557    0.0927219    0.8095961 
H    -0.9504111    3.8329010   -0.8960272 
H     1.4082294    3.1808426   -0.8087718 
H     2.7542617   -1.2193451    1.0339348 
O     4.1844164   -2.0451919   -1.1170056 
O     4.1708691   -0.3428092   -2.8003169 
H     4.2523520    0.6532750   -2.9310144 
