27
Energy =
C    -1.4085096    3.0913992   -0.1700223 
C    -1.3286062    1.9055694   -0.8379222 
C    -0.1549168    1.2394594   -0.8205338 
C    -0.3188602    3.5834692    0.4936622 
C     0.8567936    2.8902818    0.4957016 
C     0.9122225    1.7102133   -0.1723857 
N     0.1392049    0.0021948   -1.4536341 
C     1.9323554    0.8491131   -0.3203891 
C     1.5133433   -0.1744751   -1.0859408 
H    -0.4815618   -0.6122359   -2.0291059 
C     3.3363000    0.9894295    0.2264653 
C     4.2295146    1.8187321   -0.7134683 
H     3.7718589   -0.0269088    0.3595641 
H     3.3177669    1.4514599    1.2371505 
C     5.7019369    1.5951035   -0.3993481 
N     3.8377516    3.2387720   -0.6186874 
H     4.0917409    1.4579333   -1.7618410 
H     4.2333023    3.6471947    0.2639601 
H     4.2964410    3.7640120   -1.4016019 
H    -2.3413475    3.6498791   -0.1698304 
H    -2.1820314    1.5036086   -1.3734275 
H    -0.3891242    4.5345193    1.0168812 
H     1.7291654    3.2838545    1.0077357 
H     2.1281344   -1.0169994   -1.3959807 
O     6.2454655    2.0302818    0.8041716 
O     6.5045182    0.9030380   -1.2942707 
H     7.4406805    0.8525258   -0.9129159 
