27
Energy =
C    -0.8966668    2.0275013   -1.5689610 
C    -1.0376158    1.2074751   -0.4889830 
C     0.0657875    0.8866872    0.2188281 
C     0.3375218    2.5028401   -1.9168117 
C     1.4379182    2.1630323   -1.1859044 
C     1.2731639    1.3481811   -0.1118365 
N     0.1386093    0.0437935    1.3598811 
C     2.1803065    0.8666164    0.7540010 
C     1.5437533    0.0805995    1.6398253 
H    -0.6260997   -0.4669667    1.8578313 
C     3.6740098    1.1070893    0.7433007 
C     4.4353498   -0.0112162   -0.0011948 
H     4.0238442    1.1646058    1.8002036 
H     3.9091580    2.0921569    0.2857464 
C     5.9314094    0.0704672    0.2890768 
N     4.1397607    0.0854679   -1.4427020 
H     4.1164384   -1.0056430    0.3902586 
H     4.7401198   -0.5987222   -1.9635995 
H     3.1563596   -0.2328531   -1.6094169 
H    -1.7687642    2.3020906   -2.1571367 
H    -2.0084883    0.8182860   -0.2016951 
H     0.4430760    3.1530671   -2.7819941 
H     2.4181556    2.5338378   -1.4700662 
H     2.0227238   -0.4586611    2.4543487 
O     6.3820905    0.0268735    1.6015445 
O     6.8647128    0.1697074   -0.7340539 
H     6.9666408    1.1440993   -0.9733634 
