27
Energy =
C    -1.5144228    2.5519084   -1.2768551 
C    -1.4030914    1.2371603   -0.9352828 
C    -0.2057679    0.7866316   -0.5059167 
C    -0.4331313    3.3830379   -1.1819099 
C     0.7673167    2.9044987   -0.7427954 
C     0.8561078    1.5899290   -0.4094535 
N     0.1172746   -0.5368511   -0.1027424 
C     1.9033927    0.8797268    0.0458005 
C     1.5015246   -0.3896864    0.2371463 
H    -0.4947995   -1.3841957   -0.0612936 
C     3.3113733    1.3785448    0.3008611 
C     4.2181655    1.3196099   -0.9525692 
H     3.7731076    0.7755585    1.1128445 
H     3.2775418    2.4235183    0.6821743 
C     3.7522053    2.2746917   -2.0393800 
N     4.3752498   -0.0668424   -1.4330443 
H     5.2231922    1.7075342   -0.6702871 
H     4.5988137   -0.7081521   -0.6375065 
H     3.4822278   -0.3967340   -1.8741661 
H    -2.4665090    2.9393808   -1.6310204 
H    -2.2508882    0.5644575   -1.0074435 
H    -0.5302646    4.4292351   -1.4653521 
H     1.6291971    3.5639697   -0.6790062 
H     2.1345713   -1.1988126    0.5937640 
O     3.1165703    1.8175560   -3.1886878 
O     3.8770946    3.6448435   -1.8355159 
H     3.5758954    4.1277901   -2.6739108 
