27
Energy =
C    -0.7803747    2.7087816    1.1283424 
C    -0.9159596    1.3974098    0.7803352 
C     0.1568408    0.7571264    0.2701213 
C     0.4167467    3.3474928    0.9558786 
C     1.4858234    2.6788420    0.4355692 
C     1.3280102    1.3725061    0.1004632 
N     0.2243153   -0.5928123   -0.1672198 
C     2.2071867    0.5078117   -0.4287282 
C     1.5849860   -0.6697655   -0.6138796 
H    -0.5169773   -1.3304042   -0.1609412 
C     3.6369749    0.7988023   -0.8260755 
C     3.7234952    1.4237571   -2.2299820 
H     4.2368237   -0.1389427   -0.7971782 
H     4.0987475    1.4870366   -0.0852602 
C     3.2261167    0.4752914   -3.3118177 
N     5.1141936    1.8511208   -2.4602056 
H     3.0558426    2.3167241   -2.2714752 
H     5.7218166    1.0048652   -2.5881307 
H     5.1582631    2.3818930   -3.3631549 
H    -1.6285651    3.2492347    1.5408885 
H    -1.8596110    0.8772979    0.9047641 
H     0.5161101    4.3944543    1.2319936 
H     2.4338874    3.1890356    0.2935837 
H     2.0362074   -1.5489304   -1.0725493 
O     3.6636495   -0.8452991   -3.3520441 
O     2.3499694    0.9313186   -4.2867039 
H     2.1384718    0.1690537   -4.9173855 
