27
Energy =
C    -1.3883473    1.4757011    0.0991348 
C    -0.9914366    0.8319096   -1.0353506 
C     0.3280846    0.7822039   -1.3139328 
C    -0.4621024    2.0480607    0.9268461 
C     0.8664083    1.9821234    0.6246969 
C     1.2373895    1.3404482   -0.5134398 
N     0.9486836    0.1515393   -2.4253716 
C     2.4608532    1.1325126   -1.0243577 
C     2.3319690    0.4157371   -2.1541914 
H     0.5120457   -0.3630720   -3.2241108 
C     3.7779031    1.5572007   -0.4164283 
C     4.2761022    0.5271260    0.6116468 
H     3.6591760    2.5546868    0.0632358 
H     4.5429090    1.6860038   -1.2138669 
C     5.4115159    1.1118838    1.4406397 
N     4.6480969   -0.7154427   -0.0907557 
H     3.4548923    0.3089809    1.3348871 
H     5.5114134   -0.5549204   -0.6642891 
H     4.8810741   -1.4529106    0.6156150 
H    -2.4450600    1.5304921    0.3484507 
H    -1.7123341    0.3671478   -1.6992691 
H    -0.7858906    2.5555918    1.8325483 
H     1.6000540    2.4305241    1.2887967 
H     3.1596562    0.0533721   -2.7601684 
O     5.1154568    1.8393844    2.5834822 
O     6.7315273    1.0303803    1.0168558 
H     7.0841644    0.1074767    1.2209564 
