27
Energy =
C    -1.5954645    2.0730878   -0.0403846 
C    -1.1967922    0.7730710    0.0627042 
C     0.1168613    0.4946357   -0.0726784 
C    -0.6768165    3.0594273   -0.2736735 
C     0.6455196    2.7521708   -0.4055599 
C     1.0181743    1.4508422   -0.3005041 
N     0.7386732   -0.7804919    0.0073809 
C     2.2371018    0.8960930   -0.3853139 
C     2.1131068   -0.4299815   -0.2026604 
H     0.3084729   -1.7184034    0.1775873 
C     3.5465978    1.6209923   -0.5986844 
C     4.0564731    2.2835413    0.6999511 
H     3.4019270    2.3857479   -1.3958384 
H     4.3166511    0.9127106   -0.9781347 
C     5.1636232    3.2896238    0.3955786 
N     4.5018413    1.2295222    1.6292271 
H     3.2373667    2.8785344    1.1663023 
H     4.9112702    1.6789981    2.4836237 
H     3.6640598    0.7025542    1.9707537 
H    -2.6476281    2.3262309    0.0637921 
H    -1.9117433   -0.0210800    0.2491713 
H    -1.0012571    4.0942345   -0.3546356 
H     1.3743743    3.5366086   -0.5902015 
H     2.9379367   -1.1394545   -0.1971833 
O     4.9482086    4.2914514   -0.5418862 
O     6.3798638    3.2524909    1.0645277 
H     6.9850585    2.6069519    0.5802720 
