27
Energy =
C    -1.0616005    2.2663598    0.6223329 
C    -1.0707968    1.1303177   -0.1315241 
C     0.1034939    0.6747124   -0.6159126 
C     0.1152112    2.9151515    0.8768353 
C     1.2897678    2.4331078    0.3780192 
C     1.2553200    1.3029728   -0.3744331 
N     0.3144727   -0.4892369   -1.4024268 
C     2.2557342    0.6312188   -0.9653437 
C     1.7378144   -0.4493055   -1.5747741 
H    -0.3809631   -1.1838760   -1.7593196 
C     3.7292140    0.9667645   -0.9097861 
C     4.4000296    0.3463761    0.3297501 
H     3.8595767    2.0710990   -0.9061052 
H     4.2349340    0.5986581   -1.8305493 
C     5.8142921    0.8952873    0.5337294 
N     4.3904982   -1.1205276    0.1958000 
H     3.8024002    0.6353431    1.2246000 
H     5.0993963   -1.4134059   -0.5205013 
H     4.6945229   -1.5475090    1.1029306 
H    -1.9932838    2.6556220    1.0252547 
H    -1.9942661    0.6001805   -0.3381426 
H     0.1150359    3.8186539    1.4820802 
H     2.2235992    2.9463965    0.5872470 
H     2.3185959   -1.2091269   -2.0933356 
O     6.6060081    1.1880976   -0.5708572 
O     6.3545399    1.0610289    1.8087032 
H     5.7211417    0.7546368    2.5322304 
