27
Energy =
C    -1.1580781    2.7163684    0.2017921 
C    -1.1100880    1.3751943    0.4409724 
C     0.0859948    0.7547468    0.3670729 
C    -0.0154886    3.4032056   -0.1022852 
C     1.1816953    2.7531822   -0.1697078 
C     1.2054250    1.4159247    0.0698078 
N     0.3524127   -0.6211078    0.5862565 
C     2.2435991    0.5636230    0.0663080 
C     1.7721517   -0.6627105    0.3778682 
H    -0.3049914   -1.3947467    0.8374163 
C     3.6899149    0.9571235   -0.2045079 
C     4.6912354   -0.2092090   -0.3349417 
H     4.0273534    1.6256803    0.6162765 
H     3.7213571    1.5481779   -1.1473809 
C     4.3428669   -1.1180366   -1.5090381 
N     4.7838112   -0.9170739    0.9562856 
H     5.6881231    0.2185269   -0.5919105 
H     5.2785357   -1.8327347    0.8153968 
H     5.3736990   -0.3560895    1.6138137 
H    -2.1086027    3.2412550    0.2533996 
H    -2.0065530    0.8153601    0.6849672 
H    -0.0616660    4.4728848   -0.2917332 
H     2.0877482    3.3014797   -0.4104245 
H     2.3703542   -1.5683230    0.4622734 
O     4.3542703   -0.6066832   -2.8008589 
O     4.0238552   -2.4576150   -1.3153095 
H     3.8312260   -2.8788337   -2.2156850 
