27
Energy =
C    -0.3656024    2.0975713    2.2326042 
C    -0.6908114    0.9649583    1.5477551 
C     0.1006524    0.5880795    0.5219500 
C     0.7379627    2.8231875    1.8793928 
C     1.5234179    2.4211580    0.8394070 
C     1.1804561    1.2892133    0.1701247 
N    -0.0579491   -0.5534671   -0.3070657 
C     1.7789133    0.6841173   -0.8701333 
C     1.0726594   -0.4191001   -1.1781532 
H    -0.8033049   -1.2869834   -0.2931525 
C     3.0461220    1.1222691   -1.5782907 
C     4.3093246    0.3695688   -1.0955771 
H     3.1993260    2.2149871   -1.4582609 
H     2.9223214    0.9548954   -2.6727807 
C     4.2700502   -1.1070981   -1.4639796 
N     4.5494004    0.5918605    0.3420131 
H     5.1814355    0.7765829   -1.6558377 
H     4.5336691    1.6152285    0.5572384 
H     3.7993608    0.1291222    0.9104496 
H    -0.9853686    2.4234625    3.0641403 
H    -1.5609776    0.3758516    1.8168722 
H     0.9917024    3.7246122    2.4320295 
H     2.3991245    3.0005287    0.5667173 
H     1.3340786   -1.1306996   -1.9590878 
O     3.7816683   -2.0622334   -0.5771082 
O     4.6197843   -1.4986128   -2.7510811 
H     4.5436338   -2.5055061   -2.8189264 
