27
Energy =
C    -1.1308738    0.9035421    1.1956957 
C    -0.9045563   -0.0688466    0.2672495 
C     0.2408771   -0.0194449   -0.4444935 
C    -0.2100374    1.8951506    1.3936920 
C     0.9420497    1.9216899    0.6637248 
C     1.1432950    0.9458740   -0.2595433 
N     0.6743034   -0.9374020   -1.4380754 
C     2.1802841    0.7433655   -1.0875587 
C     1.9454949   -0.3756283   -1.7939753 
H     0.1952391   -1.7898916   -1.8088409 
C     3.4460651    1.5656590   -1.1770144 
C     4.5350316    1.0213332   -0.2308096 
H     3.2226788    2.6301647   -0.9447166 
H     3.8253988    1.5565368   -2.2236762 
C     5.6969528    2.0036978   -0.0669243 
N     4.9809847   -0.2928110   -0.7286302 
H     4.0895037    0.9032719    0.7844121 
H     5.5491456   -0.1628795   -1.6014170 
H     5.6182384   -0.7353284   -0.0245316 
H    -2.0457152    0.8881388    1.7829850 
H    -1.6213409   -0.8660164    0.1017705 
H    -0.3962947    2.6654063    2.1385923 
H     1.6734744    2.7070900    0.8283692 
H     2.6432149   -0.8185858   -2.5023224 
O     5.9353812    2.9721700   -1.0353985 
O     6.5447474    1.9394178    1.0382043 
H     6.3280920    1.1559002    1.6361758 
