27
Energy =
C    -0.4008855    1.6432151    2.2518850 
C    -0.4592041    0.3851216    1.7308897 
C     0.3108564    0.0996766    0.6602234 
C     0.4216517    2.5821796    1.6942382 
C     1.1913710    2.2691132    0.6126356 
C     1.1180843    1.0087601    0.1096550 
N     0.4004241   -1.1412076   -0.0232894 
C     1.7658049    0.4526640   -0.9290880 
C     1.3653030   -0.8276011   -1.0376715 
H    -0.1043121   -2.0390631    0.1599959 
C     2.7955729    1.1148151   -1.8252783 
C     4.2601004    0.8115124   -1.4113763 
H     2.6369628    2.2131909   -1.8492259 
H     2.6318922    0.7719927   -2.8726961 
C     4.6459211   -0.6610570   -1.6043300 
N     4.5241474    1.3007725   -0.0445537 
H     4.9280621    1.3609357   -2.1125923 
H     4.2674443    2.3125128    0.0309620 
H     3.9458110    0.7684739    0.6492812 
H    -1.0108985    1.9002053    3.1144030 
H    -1.1052931   -0.3723482    2.1617307 
H     0.4621186    3.5839173    2.1155724 
H     1.8413960    3.0192299    0.1751302 
H     1.7272695   -1.5346877   -1.7842350 
O     4.0662519   -1.3888406   -2.6381256 
O     5.6338427   -1.2802277   -0.8394984 
H     6.0605203   -0.6374734   -0.1889310 
