27
Energy =
C    -1.1004579    2.7035462   -0.8686480 
C    -1.0691689    1.3412991   -0.8569165 
C     0.0756480    0.7290269   -0.4909091 
C     0.0053905    3.4229649   -0.5104456 
C     1.1644874    2.7894147   -0.1602189 
C     1.1678676    1.4176020   -0.1616590 
N     0.3255230   -0.6675413   -0.4513737 
C     2.1816568    0.5639483    0.0788090 
C     1.7128787   -0.6867837   -0.0906107 
H    -0.3234852   -1.4638529   -0.6488730 
C     3.6655961    0.8852206    0.2236931 
C     4.0111016    2.1391839    1.0601107 
H     4.0995285    1.0001054   -0.7930277 
H     4.1746245    0.0127459    0.6937206 
C     3.4427901    2.0541362    2.4696419 
N     3.6019028    3.3816724    0.3537958 
H     5.1166706    2.1575429    1.2018734 
H     4.3999472    3.6948067   -0.2515520 
H     2.6798653    3.1895740   -0.3976566 
H    -2.0160356    3.2201542   -1.1461232 
H    -1.9404818    0.7576242   -1.1346634 
H    -0.0430038    4.5083276   -0.4777260 
H     2.1214426    3.5016447    0.3279009 
H     2.3192249   -1.5889817   -0.0499501 
O     4.1297704    1.3400829    3.4422320 
O     2.2291753    2.6410962    2.8027508 
H     2.4041400    3.6060026    3.0381388 
