27
Energy =
C    -1.5293950    2.6829778   -0.8561708 
C    -1.4134131    1.3507107   -0.5938018 
C    -0.1888356    0.8574753   -0.3143974 
C    -0.4252928    3.4886051   -0.8344048 
C     0.8029333    2.9666754   -0.5481354 
C     0.8961988    1.6356228   -0.2898427 
N     0.1428553   -0.4911305   -0.0172988 
C     1.9688004    0.8839586    0.0160705 
C     1.5590123   -0.3870218    0.1779323 
H    -0.4784364   -1.3296547    0.0507035 
C     3.4093660    1.3404490    0.1474711 
C     4.2174314    1.1409330   -1.1527592 
H     3.8947153    0.7661034    0.9662151 
H     3.4527873    2.4079813    0.4540284 
C     3.7081202    2.0337110   -2.2825096 
N     4.2306633   -0.2920678   -1.5010712 
H     5.2608485    1.4828251   -0.9672208 
H     4.7091259   -0.4216573   -2.4248042 
H     4.8071382   -0.8098619   -0.7978005 
H    -2.5040742    3.1049170   -1.0884622 
H    -2.2791347    0.6973939   -0.6106410 
H    -0.5272889    4.5496970   -1.0531816 
H     1.6809419    3.6064208   -0.5431500 
H     2.2112100   -1.2271878    0.4034725 
O     3.4303724    1.5223994   -3.5463470 
O     3.5835457    3.4046293   -2.0693221 
H     3.3063925    3.8426917   -2.9399194 
