27
Energy =
C    -1.6408301    2.1937888   -0.3592989 
C    -1.4550427    0.9172800    0.0780873 
C    -0.1924543    0.4496991    0.1701000 
C    -0.5664497    2.9692749   -0.6927655 
C     0.6995455    2.4726603   -0.5907167 
C     0.8638301    1.1952952   -0.1519702 
N     0.2106533   -0.8366496    0.5982000 
C     2.0000738    0.4907744    0.0300826 
C     1.6387768   -0.7356582    0.4802688 
H    -0.3785823   -1.6400696    0.9173185 
C     3.3898058    1.0797576   -0.2505577 
C     4.7284993    0.2903958   -0.0607322 
H     3.4542930    2.0153561    0.3487477 
H     3.3732275    1.4285689   -1.3066950 
C     4.6367929   -1.1559061    0.3772059 
N     5.6201967    1.0754315    0.8149944 
H     5.2106447    0.2175650   -1.0648004 
H     5.2471813    1.0216949    1.7947177 
H     6.5551642    0.6028309    0.8561052 
H    -2.6472618    2.5960294   -0.4434832 
H    -2.2965956    0.2879031    0.3465080 
H    -0.7219325    3.9871330   -1.0416133 
H     1.5480815    3.0950535   -0.8582791 
H     2.2888562   -1.5649101    0.7260641 
O     4.3793083   -2.1499176   -0.5538931 
O     4.7138638   -1.5076704    1.7165007 
H     4.7012376   -2.5186297    1.7814702 
