27
Energy =
C    -1.0045239    3.0545331    0.4810227 
C    -1.2082095    1.7635870    0.0924570 
C    -0.1290291    0.9965924   -0.1684310 
C     0.2660181    3.5477001    0.5954697 
C     1.3407670    2.7531121    0.3234967 
C     1.1133042    1.4695690   -0.0572703 
N    -0.1208651   -0.3574128   -0.5987745 
C     1.9836512    0.5020522   -0.3842326 
C     1.2880554   -0.5973457   -0.7243465 
H    -0.9265842   -1.0018323   -0.7713094 
C     3.4901040    0.6200394   -0.4382331 
C     3.9712366    1.2007136   -1.7792736 
H     3.9553428   -0.3787920   -0.2801207 
H     3.8445035    1.2665225    0.3933281 
C     3.6417694    0.2856128   -2.9531184 
N     5.4150778    1.4711420   -1.6750023 
H     3.4378841    2.1621817   -1.9650017 
H     5.9395420    0.5622677   -1.6803477 
H     5.7210374    1.9900436   -2.5330951 
H    -1.8558956    3.6951558    0.6964075 
H    -2.2092319    1.3586075   -0.0096117 
H     0.4202379    4.5796545    0.9013339 
H     2.3485283    3.1491913    0.4080893 
H     1.7294000   -1.5266063   -1.0845582 
O     3.2551997    0.8268255   -4.1725434 
O     3.7664166   -1.0950459   -2.8331420 
H     3.5490564   -1.5148275   -3.7287176 
