27
Energy =
C    -0.8865867    1.4339889   -1.9671886 
C    -0.9839207    0.6617166   -0.8480873 
C     0.0980961    0.5545632   -0.0487585 
C     0.2841479    2.0763390   -2.2614312 
C     1.3646613    1.9512561   -1.4383974 
C     1.2442768    1.1784412   -0.3275347 
N     0.2086238   -0.2021417    1.1482864 
C     2.1451315    0.8896410    0.6265827 
C     1.5671095    0.0665594    1.5190560 
H    -0.5092181   -0.7944522    1.6258258 
C     3.5829515    1.3544740    0.6999922 
C     4.5741042    0.2759235    0.2022342 
H     3.8133498    1.6070166    1.7604402 
H     3.7304790    2.2974928    0.1303140 
C     5.9989011    0.6592076    0.5576405 
N     4.4285769    0.0620695   -1.2491865 
H     4.3899301   -0.6861965    0.7355218 
H     3.4515832   -0.2290279   -1.4824337 
H     4.6385992    0.9552393   -1.7583160 
H    -1.7430588    1.5379971   -2.6287918 
H    -1.9041829    0.1429886   -0.6016263 
H     0.3543609    2.6894352   -3.1569455 
H     2.2927173    2.4600542   -1.6785675 
H     2.0594289   -0.3471122    2.3972439 
O     6.6834142   -0.0421082    1.5435260 
O     6.6044170    1.7572526   -0.0432591 
H     7.5432649    1.8493037    0.3223728 
