27
Energy =
C    -1.5779470    2.3158528    0.1338616 
C    -1.2092775    1.0989455    0.6264899 
C     0.0667343    0.6971098    0.4484308 
C    -0.6672034    3.0995965   -0.5199014 
C     0.6171277    2.6714030   -0.6856511 
C     0.9601915    1.4553547   -0.1887948 
N     0.6542518   -0.5195981    0.8881171 
C     2.1402323    0.8173932   -0.2149787 
C     2.0008388   -0.3584757    0.4219697 
H     0.2216580   -1.3146025    1.4127116 
C     3.4342475    1.3333919   -0.8016276 
C     4.1489617    2.3162798    0.1469578 
H     3.2219727    1.8248292   -1.7769193 
H     4.1188715    0.4822510   -1.0209818 
C     5.3105845    3.0182666   -0.5644090 
N     4.6086174    1.5819752    1.3386948 
H     3.4291752    3.1112642    0.4497659 
H     5.2561324    2.1860379    1.8999131 
H     3.7879779    1.3913458    1.9606455 
H    -2.5998301    2.6645688    0.2622701 
H    -1.9181934    0.4659078    1.1495712 
H    -0.9677259    4.0694081   -0.9096511 
H     1.3395647    3.2958373   -1.2033480 
H     2.8001617   -1.0792907    0.5835636 
O     5.9354693    2.4158290   -1.6512949 
O     5.7797261    4.2578504   -0.1273749 
H     5.2734631    4.5921667    0.6787750 
