27
Energy =
C    -1.4211658    0.5348221    0.4599029 
C    -0.8591928   -0.4964289   -0.2321356 
C     0.4322018   -0.3860694   -0.6080954 
C    -0.6833035    1.6461701    0.7600853 
C     0.6204418    1.7341056    0.3695459 
C     1.1597484    0.6950485   -0.3197944 
N     1.2013403   -1.3422392   -1.3241951 
C     2.4008115    0.5320584   -0.8083770 
C     2.4653675   -0.6713295   -1.4054619 
H     0.9167230   -2.2777622   -1.6956099 
C     3.5675770    1.4892706   -0.6871016 
C     4.4727829    1.1502611    0.5205251 
H     3.2079285    2.5382322   -0.6033992 
H     4.1670764    1.4303041   -1.6221391 
C     3.7167300    1.2806923    1.8373089 
N     5.7130389    1.9646516    0.4878431 
H     4.7695440    0.0779703    0.4535413 
H     5.7344733    2.6294476   -0.3204740 
H     5.7913886    2.5671281    1.3438912 
H    -2.4586671    0.4710975    0.7780715 
H    -1.4289113   -1.3870434   -0.4744046 
H    -1.1361028    2.4626483    1.3173768 
H     1.2033549    2.6159224    0.6172314 
H     3.3537301   -1.0897311   -1.8730458 
O     3.3874347    0.1471958    2.5707896 
O     3.3192042    2.5294925    2.3021255 
H     2.8366150    2.4067258    3.1831829 
