27
Energy =
C    -1.1856079    3.2723061   -0.2641631 
C    -1.2894579    1.9256998   -0.4472641 
C    -0.1588693    1.1889592   -0.4334530 
C     0.0390838    3.8489563   -0.0722094 
C     1.1677665    3.0832642   -0.0621429 
C     1.0414621    1.7426491   -0.2476513 
N    -0.0506024   -0.2166806   -0.6051007 
C     1.9791695    0.7796176   -0.2832663 
C     1.3662976   -0.3987514   -0.4942537 
H    -0.8027850   -0.9244837   -0.7693095 
C     3.4770287    0.9449036   -0.1343389 
C     4.2175198    0.7670652   -1.4831844 
H     3.8370180    0.1809362    0.5914441 
H     3.7388695    1.9314056    0.3069823 
C     5.7149900    0.6566305   -1.2655529 
N     3.9111676    1.8701405   -2.4197552 
H     3.9228492   -0.2120111   -1.9307481 
H     3.5250487    1.4779238   -3.3105775 
H     3.1917082    2.5309800   -2.0475011 
H    -2.0804366    3.8897238   -0.2704606 
H    -2.2532429    1.4521860   -0.6005688 
H     0.1140475    4.9240817    0.0737075 
H     2.1357661    3.5494103    0.0906281 
H     1.8698207   -1.3601342   -0.5705405 
O     6.4067037    1.6340227   -0.5551873 
O     6.4040518   -0.4510394   -1.7467247 
H     7.3854962   -0.3470162   -1.5236647 
