27
Energy =
C    -0.5090043    1.4213376    1.8332648 
C    -0.2873356    0.1853539    1.3021499 
C     0.7791987    0.0194788    0.4920642 
C     0.3334060    2.4583950    1.5412775 
C     1.4032071    2.2661367    0.7173072 
C     1.6063653    1.0256434    0.2034601 
N     1.1769339   -1.1720642   -0.1711877 
C     2.5651814    0.5840849   -0.6252094 
C     2.3372583   -0.7167243   -0.8806919 
H     0.7462288   -2.1246090   -0.1439219 
C     3.6806662    1.4026667   -1.2386188 
C     3.2178986    2.1355592   -2.5141890 
H     4.5439816    0.7433957   -1.4847208 
H     4.0519744    2.1365382   -0.4916352 
C     2.7837085    1.1607637   -3.6026105 
N     4.3131120    2.9984422   -2.9844519 
H     2.3277545    2.7630090   -2.2725521 
H     3.9895552    3.5178637   -3.8359445 
H     4.5018551    3.7333807   -2.2626293 
H    -1.3614398    1.5835530    2.4881470 
H    -0.9495625   -0.6461555    1.5185257 
H     0.1473315    3.4420902    1.9655443 
H     2.0672457    3.0923027    0.4818753 
H     2.9251107   -1.3307189   -1.5612553 
O     1.6569767    1.4313237   -4.3667199 
O     3.5417311    0.0338848   -3.8967589 
H     4.2817878    0.3149474   -4.5230548 
