24
Energy =
C    -0.9122620    1.3601235    0.6307199 
C    -0.6403348    2.5560401    0.0454395 
C     0.4622838    2.6866081   -0.7255118 
C    -0.0814714    0.3038177    0.4425554 
C     1.0254350    0.4283583   -0.3425258 
C     1.2949860    1.6327545   -0.9205170 
O    -1.4724187    3.6662887    0.2227842 
H    -2.2931821    3.4806433    0.7891449 
H     2.1760192    1.7639335   -1.5426439 
H    -0.3168402   -0.6433129    0.9191809 
H    -1.7956842    1.2446089    1.2491265 
H     0.6679722    3.6471840   -1.1852130 
C     1.9598876   -0.7505762   -0.5560184 
C     1.4388392   -1.8050765   -1.5734414 
H     2.1499010   -1.2418299    0.4243066 
H     2.9552684   -0.3910591   -0.9003866 
C     0.2023650   -2.5422828   -1.0811750 
O    -1.0737578   -2.0320731   -1.2839561 
O     0.3469473   -3.6997189   -0.3251039 
H     0.5981224   -3.4521003    0.6196160 
N     1.2269786   -1.2246755   -2.9172931 
H     2.2132277   -2.6057200   -1.6405628 
H     1.4413184   -0.2029867   -2.9595533 
H     1.8448105   -1.6978217   -3.6174137 
