24
Energy =
C     1.7758691   -2.3058291   -0.5172280 
C     0.9315472   -2.5846017   -0.0873566 
C     0.6600405   -1.4296274   -0.3465293 
C     2.8621875   -2.0060387   -0.9182984 
C     2.0441936   -0.8609038   -0.8013817 
C     0.5163427   -0.6533732   -0.5982391 
O    -0.7108379   -3.1033427    0.8112537 
H    -1.4409005   -3.9558088    1.0598451 
H    -0.7886890   -0.4049293   -0.5636771 
H     3.7950519   -1.0428266   -1.3793419 
H     1.3308543   -3.3367412   -0.8514681 
H    -0.2762874   -1.0037964    1.2555166 
C     2.6319156    0.5442482   -1.2640838 
C     1.0897122    2.0245693   -1.3945683 
H     2.2188491    0.4783901   -1.1671831 
H     1.3440565    0.9686817   -1.0883980 
C    -0.5895320    2.4878862   -1.2571871 
O    -1.8161606    1.6671361   -0.6395966 
O    -2.3704984    2.2708711   -1.2508686 
H    -3.4537199    2.8489210   -1.6476539 
N     1.5462974    3.7428157   -1.8873311 
H    -0.1374696    2.1565047   -1.4890428 
H     1.9316465    3.0552074   -1.7647987 
H     0.4983276    4.0589600   -1.8473202 
