24
Energy =
C     0.5828830    2.4651928    0.0273277 
C    -0.3365788    2.0251489    0.9257602 
C    -0.4618908    0.7003490    1.1600985 
C     1.3710303    1.5786712   -0.6324472 
C     1.2445433    0.2411221   -0.4025168 
C     0.3212972   -0.1921237    0.5023385 
O    -1.1649666    2.9079884    1.6221132 
H    -1.0168472    3.8875119    1.3983218 
H     0.2046522   -1.2524635    0.7103916 
H     2.1003145    1.9549504   -1.3476737 
H     0.6892809    3.5280830   -0.1664605 
H    -1.1997714    0.3687889    1.8840976 
C     2.1160503   -0.7566066   -1.1427716 
C     1.3374499   -1.4825855   -2.2816333 
H     2.4986418   -1.4956638   -0.4037703 
H     3.0196857   -0.2487954   -1.5608709 
C     1.0467036   -0.6021921   -3.4960936 
O     1.5068059    0.7036064   -3.5306879 
O     0.3207592   -1.0485278   -4.5977485 
H     0.3953264   -2.0591671   -4.6536381 
N     2.0832884   -2.6452558   -2.7457291 
H     0.3584705   -1.8315479   -1.8817062 
H     2.1683574   -3.3592780   -1.9720200 
H     1.4790435   -3.0292800   -3.5198748 
