24
Energy =
C    -0.7543579    1.3624852    0.8622798 
C    -0.2526510    2.5376459    0.4173651 
C     0.8827590    2.5538298   -0.3178615 
C    -0.1256267    0.1963936    0.5663634 
C     1.0174676    0.2047413   -0.1750355 
C     1.5173106    1.3919514   -0.6179124 
O    -0.9002136    3.7307627    0.7221837 
H    -1.5957215    3.9520627    0.0182061 
H     2.4284703    1.4186113   -1.2106334 
H    -0.5426887   -0.7398528    0.9280429 
H    -1.6595418    1.3660250    1.4597022 
H     1.2799806    3.5037535   -0.6599962 
C     1.7177567   -1.0907944   -0.5213508 
C     1.4286181   -1.5487521   -1.9746594 
H     1.4348687   -1.8974657    0.1926495 
H     2.8145345   -0.9473103   -0.3862773 
C     2.2980524   -2.7364459   -2.3957800 
O     3.1123519   -3.3767094   -1.4665865 
O     2.3017423   -3.1924887   -3.7134341 
H     1.6061050   -2.7127270   -4.2676054 
N    -0.0014350   -1.8589341   -2.1463857 
H     1.7053403   -0.7238941   -2.6699981 
H    -0.3147075   -2.5401086   -1.4139685 
H    -0.5714958   -0.9874281   -2.0362224 
