24
Energy =
C     0.9632162    2.0238844    0.5943986 
C     0.9654995    2.9014863   -0.4345580 
C     1.1137424    2.4560947   -1.7028613 
C     1.1212545    0.6966399    0.3592936 
C     1.2678987    0.2371829   -0.9156269 
C     1.2676840    1.1295810   -1.9465601 
O     0.8130026    4.2629389   -0.1894981 
H     1.7129681    4.7013606   -0.0297355 
H     1.3894309    0.7908414   -2.9716687 
H     1.1201652    0.0052743    1.1976629 
H     0.8285171    2.3933254    1.6048223 
H     1.1048425    3.1696179   -2.5200664 
C     1.4450291   -1.2468195   -1.1835543 
C     0.1262405   -2.0663664   -1.1212899 
H     2.1666495   -1.6629050   -0.4439034 
H     1.9175131   -1.4047112   -2.1783281 
C    -0.4853863   -2.0844039    0.2692986 
O    -1.4050393   -1.1208414    0.6731174 
O    -0.0626277   -3.0398561    1.1868913 
H    -0.5728423   -2.9128580    2.0516743 
N    -0.8506569   -1.6288547   -2.1422886 
H     0.3978943   -3.1330161   -1.3037122 
H    -0.4918495   -0.8485784   -2.7375068 
H    -1.0792648   -2.4230197   -2.7845530 
