24
Energy =
C     0.1480977    2.1289467   -0.1850758 
C     1.1280957    2.5350279    0.6658774 
C     2.2883146    1.8382714    0.7323523 
C     0.3426849    1.0309109   -0.9548673 
C     1.4948649    0.3193495   -0.8847310 
C     2.4781827    0.7369682   -0.0421400 
O     0.9720884    3.6614114    1.4796670 
H     0.0804857    4.1324025    1.3677920 
H     3.4203188    0.1984514    0.0175562 
H    -0.4411675    0.5896543   -1.7224584 
H    -0.7855654    2.6759218   -0.2548475 
H     3.0638745    2.1774828    1.4105754 
C     1.6954951   -0.8861963   -1.7975603 
C     0.4123249   -1.7485251   -1.9974113 
H     2.5000219   -1.5272777   -1.3750121 
H     2.0621044   -0.5362531   -2.7885139 
C    -0.6566599   -1.0260484   -2.8617482 
O    -1.1815414    0.1909420   -2.4334175 
O    -1.1311569   -1.5388217   -4.0633632 
H    -0.5663858   -2.3105005   -4.3795814 
N     0.8035189   -3.0638562   -2.5443446 
H    -0.0711537   -1.8972007   -1.0009663 
H     1.5094433   -3.5170317   -1.9149414 
H    -0.0262359   -3.7056539   -2.5110494 
