24
Energy =
C     0.0523713    2.3207166   -1.6259311 
C     0.0732075    3.0069454   -0.4592803 
C     0.5722654    2.4265346    0.6599608 
C     0.5409592    1.0576328   -1.6658550 
C     1.0317209    0.4609833   -0.5558140 
C     1.0579675    1.1567750    0.6141576 
O    -0.4243183    4.3049175   -0.4063640 
H     0.3074264    4.9772691   -0.6085374 
H     1.4652283    0.7077483    1.5160868 
H     0.5592562    0.3561019   -2.6103611 
H    -0.3585690    2.7833248   -2.5165063 
H     0.5790160    2.9861151    1.5894684 
C     1.6143933   -0.9397249   -0.6676140 
C     0.7569353   -1.9229504   -1.5316821 
H     1.7306061   -1.3664921    0.3531824 
H     2.6359380   -0.8610872   -1.1025049 
C     0.7447067   -1.5948124   -3.0520601 
O     0.5720372   -0.2853842   -3.4999581 
O     0.8057392   -2.5845276   -4.0285246 
H     0.7835457   -3.5127535   -3.6380935 
N     1.2102993   -3.3012082   -1.2704049 
H    -0.3081028   -1.8374851   -1.2135996 
H     2.2445549   -3.3716831   -1.4297676 
H     1.0282472   -3.5499211   -0.2689433 
