24
Energy =
C    -1.0004546    1.7855414   -1.2816426 
C    -1.4415621    1.7133958    0.0021906 
C    -0.6766270    1.1086387    0.9389078 
C     0.2050528    1.2589800   -1.6198751 
C     0.9802265    0.6549158   -0.6741097 
C     0.5270048    0.5763964    0.6069638 
O    -2.6746096    2.2499258    0.3846679 
H    -3.2024555    2.6607793   -0.3778955 
H     1.1209296    0.0877780    1.3751395 
H     0.5357161    1.3005833   -2.6601490 
H    -1.6156985    2.2569112   -2.0412222 
H    -1.0442742    1.0525606    1.9579535 
C     2.3190886    0.0503010   -1.0483785 
C     2.1752066   -1.3437388   -1.6951670 
H     2.9650202   -0.0309785   -0.1461675 
H     2.8631793    0.7280061   -1.7439741 
C     1.3610264   -1.2687471   -2.9832572 
O     0.0867227   -1.8145333   -3.0151545 
O     1.8008562   -0.5325455   -4.0821780 
H     2.7977612   -0.3717976   -4.0267557 
N     3.5239678   -1.8847338   -1.9345934 
H     1.6107790   -2.0171635   -1.0061889 
H     3.9707262   -2.1117380   -1.0146461 
H     3.4403341   -2.7985082   -2.4433414 
