24
Energy =
C     0.5050399    2.6213047   -0.6282381 
C     0.0024568    2.4887654    0.6207114 
C     0.1544696    1.3239144    1.2918129 
C     1.1588041    1.5853876   -1.2136757 
C     1.3164016    0.4096218   -0.5435118 
C     0.8042916    0.2826159    0.7119920 
O    -0.6662100    3.5528152    1.2174979 
H    -1.6552273    3.5254820    0.9936214 
H     0.9119515   -0.6506712    1.2594538 
H     1.5462199    1.6972904   -2.2256550 
H     0.3759555    3.5627298   -1.1514425 
H    -0.2481885    1.2327252    2.2952100 
C     2.0152827   -0.7588596   -1.2039626 
C     1.0298730   -1.6450083   -1.9902884 
H     2.5260048   -1.3795438   -0.4334735 
H     2.8221205   -0.3978162   -1.8820403 
C     0.4005423   -0.9003162   -3.1702683 
O     1.2051345   -0.1400622   -4.0111959 
O    -0.9633335   -0.9826099   -3.4471505 
H    -1.4530323   -1.5943447   -2.8121538 
N     1.7443626   -2.8563404   -2.4245726 
H     0.2090157   -1.9413160   -1.2978973 
H     1.0744755   -3.4951334   -2.9171075 
H     2.4669949   -2.5932424   -3.1389325 
