24
Energy =
C    -0.6263588    1.8241249   -2.0120972 
C    -1.3340423    2.0261155   -0.8766933 
C    -0.9114007    1.4862870    0.2894287 
C     0.5148522    1.0894993   -1.9830491 
C     0.9555734    0.5560523   -0.8092356 
C     0.2292906    0.7513378    0.3262584 
O    -2.5032345    2.7794444   -0.9104064 
H    -2.3011052    3.7620765   -0.7625223 
H     0.5527819    0.3106742    1.2656745 
H     1.0694844    0.9280667   -2.9038639 
H    -0.9867818    2.2487510   -2.9426977 
H    -1.4975287    1.6398917    1.1892962 
C     2.2141522   -0.2834040   -0.7767294 
C     1.8978971   -1.7773207   -1.0050177 
H     2.7346471   -0.1417872    0.1960799 
H     2.9207683    0.0795516   -1.5585811 
C     3.1458378   -2.5822047   -1.3639348 
O     3.1681219   -3.2925121   -2.5565785 
O     4.2615463   -2.6382970   -0.5285925 
H     4.1453592   -2.0740221    0.2983297 
N     1.1951008   -2.3178139    0.1740490 
H     1.2303110   -1.8623540   -1.8966126 
H     0.8874254   -3.3004403   -0.0261326 
H     1.8451049   -2.3684634    0.9935702 
