24
Energy =
C    -0.7440393    1.8541222   -1.7708694 
C    -0.3475586    2.6885955   -0.7729909 
C     0.7003507    2.3441245    0.0094880 
C    -0.0893760    0.6837023   -1.9818865 
C     0.9730469    0.3417362   -1.2014063 
C     1.3591960    1.1759114   -0.1978538 
O    -0.9998029    3.9016174   -0.5296051 
H    -1.7776449    4.0851310   -1.1538340 
H     2.1896196    0.9089978    0.4508796 
H    -0.4229935    0.0208223   -2.7768203 
H    -1.5874731    2.1196665   -2.3991928 
H     1.0011572    3.0140276    0.8074953 
C     1.6898493   -0.9722341   -1.4214877 
C     1.0298628   -2.1146167   -0.6274800 
H     2.7600163   -0.8845665   -1.1277499 
H     1.6904667   -1.2177871   -2.5078630 
C     1.5560668   -3.4629145   -1.0914363 
O     2.7944283   -3.9275100   -0.6646480 
O     0.8295834   -4.2110767   -2.0053719 
H     1.3411015   -5.0623939   -2.2020859 
N     1.2393525   -1.8902800    0.8157975 
H    -0.0640741   -2.1250588   -0.8461529 
H     0.7011055   -2.6120967    1.3518017 
H     2.2489721   -2.0549592    1.0506494 
