24
Energy =
C    -1.9518245   -0.0027178    0.1357214 
C    -0.7026402    0.2140150   -1.3793935 
C     0.1586883   -0.7978416   -0.8525774 
C    -1.1711720   -0.7168292    1.0433501 
C     0.5792731   -0.9851645    0.3456362 
C    -0.0317272   -0.6854801    0.8265546 
O    -1.3856060   -0.0763950   -2.6863139 
H    -1.9164244   -0.3259655   -3.7285719 
H     0.7325864   -1.3754728    2.0504579 
H    -2.0787250   -1.4366868    1.5617866 
H    -3.0213031   -0.1792995    0.3205603 
H     0.4814827   -2.2013097   -1.6333020 
C     2.1008430   -0.0521208    0.4199762 
C     2.2999887    0.9853455   -0.9806394 
H     3.0764675   -0.5228801    1.0736647 
H     1.7943117    0.8230499    1.0271437 
C     1.6796105    0.6589315   -2.4245843 
O     2.0039660   -0.5970362   -2.9449229 
O     0.7187798    1.5288144   -3.0899121 
H     0.5503169    1.2039587   -4.0333730 
N     1.6414707    2.2962822   -0.8705460 
H     3.4395244    1.1481577   -1.0497397 
H     2.1238150    2.9340054   -0.1320070 
H     0.6450966    2.1718941   -0.5981220 
