24
Energy =
C     0.5919457    2.5326708   -0.8727305 
C     0.5389737    2.6334686    0.4747919 
C     0.8566921    1.5690876    1.2454140 
C     0.9572298    1.3619488   -1.4554988 
C     1.2699731    0.2796468   -0.6884000 
C     1.2210970    0.3952144    0.6698795 
O     0.1654809    3.8350732    1.0679506 
H    -0.8422676    3.8807256    1.1740825 
H     1.4628543   -0.4525269    1.3064872 
H     0.9890728    1.2934368   -2.5382735 
H     0.3402724    3.3975662   -1.4770168 
H     0.8141964    1.6626639    2.3254940 
C     1.6781116   -1.0340582   -1.3366174 
C     0.4933997   -1.7991479   -1.9837753 
H     2.1682071   -1.6956460   -0.5866550 
H     2.4546207   -0.8307735   -2.1052307 
C    -0.5900808   -2.1810118   -0.9538424 
O    -0.2713731   -2.2096276    0.4004501 
O    -1.8462547   -2.6637045   -1.3283397 
H    -1.9580271   -2.7444979   -2.3243757 
N    -0.0136985   -1.0126684   -3.1297637 
H     0.8853580   -2.7739196   -2.3553385 
H     0.7608906   -0.8811527   -3.8230203 
H    -0.7370025   -1.5540229   -3.6563696 
