24
Energy =
C    -0.1082244    1.4428974    1.2980494 
C    -0.2945177    2.4782896    0.4478386 
C     0.2299016    2.4348726   -0.7980845 
C     0.6021647    0.3555770    0.9032766 
C     1.1335087    0.3038630   -0.3508729 
C     0.9463879    1.3537097   -1.1993142 
O    -1.0434751    3.5784908    0.8466890 
H    -0.4621093    4.2732426    1.3063165 
H     1.3757581    1.3442524   -2.2000965 
H     0.7475996   -0.4626533    1.6045212 
H    -0.5360489    1.4953745    2.2946129 
H     0.0706229    3.2747418   -1.4687283 
C     1.9263692   -0.9032753   -0.7994865 
C     1.1538053   -1.7741657   -1.8482762 
H     2.2427003   -1.5325167    0.0680419 
H     2.8865044   -0.5431689   -1.2486035 
C     2.0073679   -2.8963725   -2.4108123 
O     3.3807624   -2.8714311   -2.2480851 
O     1.4671808   -3.9030405   -3.1942746 
H     0.8175464   -4.4264870   -2.6023806 
N    -0.1054000   -2.3191014   -1.3227437 
H     0.9020439   -1.1408888   -2.7225934 
H    -0.0464345   -3.3757515   -1.2539764 
H    -0.3480830   -1.9104697   -0.3852266 
