24
Energy =
C     0.4187769    2.4990209   -1.5276937 
C    -0.3318979    2.7298621   -0.4258250 
C    -0.3522439    1.8263136    0.5807715 
C     1.1484286    1.3589694   -1.6295696 
C     1.1359781    0.4462353   -0.6180266 
C     0.3749369    0.6841247    0.4862436 
O    -1.0795801    3.8991376   -0.3255840 
H    -2.0000023    3.7705732   -0.7312162 
H     0.3394713   -0.0404160    1.2958381 
H     1.7415053    1.1832927   -2.5235973 
H     0.4304903    3.2352080   -2.3238386 
H    -0.9555399    2.0238788    1.4604401 
C     1.9312888   -0.8349128   -0.7373184 
C     1.1135463   -1.9449958   -1.4262330 
H     2.2615045   -1.1805352    0.2678830 
H     2.8643371   -0.6382292   -1.3141051 
C     2.0066804   -3.1170347   -1.8039715 
O     2.8008286   -3.0388635   -2.9407837 
O     2.0735056   -4.2510725   -1.0041638 
H     2.7348930   -4.8997977   -1.4123846 
N    -0.0083926   -2.3414946   -0.5533621 
H     0.7113006   -1.5525359   -2.3893820 
H    -0.5563023   -3.0980986   -1.0289550 
H     0.3770350   -2.7899229    0.3128359 
