24
 energy: -39.995600092848 gnorm: 0.007324532338 xtb: 6.6.0 (2ccbbd7)
C            1.20790205792226        2.56473842585458       -0.42827921011598
C           -0.04480415279857        2.72746216800701        0.14804083074272
C           -0.75762048048549        1.60412399908810        0.56133934002845
C            1.74044448635090        1.29625774060146       -0.57940387791380
C            1.04170062057278        0.17150999188502       -0.16208163169952
C           -0.21719941938487        0.34552535133105        0.40665006642730
O           -0.60494721989110        3.95223465550995        0.33144013429879
H           -0.00056893192962        4.63734940592388        0.02078304271052
H           -0.77413442256242       -0.51994566120590        0.73082476597326
H            2.72505849662544        1.19028039465544       -1.01549637956141
H            1.77111051805961        3.43150988257431       -0.75050025112251
H           -1.72842762241643        1.74392622272755        1.00869054656163
C            1.62418905748798       -1.20330598800125       -0.33390047495315
C            1.17196173901941       -1.86531281109174       -1.65378947813449
H            1.29594223383670       -1.84990085786638        0.48061708021093
H            2.71512653613272       -1.14762215966761       -0.32237267627058
C           -0.31780429863694       -2.24266128058153       -1.60618960270165
O           -0.87762841535274       -2.61041235034005       -0.61567862438480
O           -0.91787782352834       -2.15484647900060       -2.78754249945927
H           -0.25982901925316       -1.82397958202549       -3.44008960752552
N            1.40195852975342       -1.08120280802353       -2.86196094094290
H            1.71573002646958       -2.81397710308892       -1.76622113419563
H            1.01798844074694       -0.14453462251268       -2.73122812784505
H            2.39949176326193       -0.97776813475265       -3.02702939012730
