15
Energy =
C    -3.7918711    2.2469545   -0.6117244 
C    -2.7918748    1.7522098    0.4263875 
H    -3.7617517    3.3543887   -0.6929233 
H    -4.8173719    1.9348216   -0.3212215 
H    -3.5697501    1.8021605   -1.6043640 
N    -2.8765670    0.2842426    0.4561621 
H    -3.0880218   -0.0348302    1.4305550 
H    -1.9661515   -0.1645004    0.1956015 
C    -1.3841742    2.2580445    0.1219434 
H    -3.0925300    2.1741106    1.4175492 
N    -0.7122440    1.8819372   -1.0757003 
N    -0.7209767    3.1438187    1.0200954 
H    -0.6483312    2.6585736    1.9408491 
H    -1.3258695    3.9859665    1.1360229 
H    -1.1601136    1.2329780   -1.7564146 
