15
Energy =
C    -3.7794407    2.7653421    0.0441591 
C    -2.7776099    1.6578810    0.3956275 
H    -4.7710464    2.5463779    0.4928978 
H    -3.8893128    2.8464221   -1.0595715 
H    -3.4232340    3.7444922    0.4303592 
N    -3.2345464    0.3626584   -0.1354388 
H    -4.1682143    0.4287550   -0.6053162 
H    -3.3428754   -0.3197889    0.6504217 
C    -1.3952991    1.9843055   -0.1468771 
H    -2.7013364    1.6076754    1.5087123 
N    -0.2790655    2.1156621    0.7328149 
N    -1.1975269    2.1831911   -1.5464252 
H    -1.4046383    1.2642371   -1.9953774 
H    -0.1801607    2.3611728   -1.6959266 
H    -0.3756320    1.9729422    1.7604773 
