15
Energy =
C    -3.8200314    2.6574126   -0.0027236 
C    -2.7689711    1.6381086    0.4193106 
H    -3.5439706    3.6734516    0.3500903 
H    -4.8079643    2.3793596    0.4200709 
H    -3.9057616    2.6722903   -1.1104583 
N    -3.2006303    0.3249880   -0.0842492 
H    -3.3001040   -0.3400400    0.7176881 
H    -2.4905624   -0.0966116   -0.7274230 
C    -1.3831213    2.0367257   -0.0801552 
H    -2.7350568    1.6278954    1.5360533 
N    -0.2744970    2.0749190    0.8158700 
N    -1.1837637    2.4323408   -1.4374523 
H    -1.2881353    1.5733407   -2.0183132 
H    -0.1883776    2.7338549   -1.5326410 
H    -0.3727860    1.8053038    1.8181741 
