15
Energy =
C    -3.8820431    2.6925815    0.0023561 
C    -2.7223831    1.7856605    0.5061433 
H    -4.8072073    2.1335354   -0.2415914 
H    -3.6550489    3.2686163   -0.9055596 
H    -4.1538219    3.4246625    0.7924528 
N    -3.1802180    0.3903483    0.6628824 
H    -4.1767156    0.2246061    0.3966662 
H    -3.0841100    0.0985665    1.6638287 
C    -1.4108284    1.7999375   -0.2892248 
H    -2.4137268    2.1799054    1.5068355 
N    -1.1343265    2.6893668   -1.3766050 
N    -0.3461818    0.9619737    0.1636173 
H     0.4763565    1.1268402   -0.4573695 
H    -0.6568661   -0.0173662   -0.0199634 
H    -1.7632929    3.4288896   -1.7430433 
