15
Energy =
C    -3.7612188    2.7175240    0.0821772 
C    -2.7460733    1.6107074    0.3959424 
H    -3.9045183    2.8077993   -1.0163116 
H    -3.3975484    3.6945375    0.4669040 
H    -4.7382671    2.4903573    0.5584707 
N    -3.2328699    0.3080563   -0.0999249 
H    -2.5939068   -0.0927869   -0.8253739 
H    -4.1758697    0.3788270   -0.5497252 
C    -1.3662206    1.9666242   -0.1489038 
H    -2.6523940    1.5392962    1.5054340 
N    -0.2263380    1.9708183    0.7081662 
N    -1.2048519    2.3705309   -1.5086885 
H    -1.2975286    1.5100531   -2.0889535 
H    -0.2186191    2.6948425   -1.6229182 
H    -0.2931596    1.6810332    1.7074430 
