15
Energy =
C    -3.9487877    2.2384520   -0.2026340 
C    -2.7330213    1.5960448    0.4553670 
H    -4.8738237    1.7398030    0.1564572 
H    -3.8996175    2.1153632   -1.3047747 
H    -4.0043201    3.3200178    0.0435088 
N    -2.7261898    0.1730196    0.0797046 
H    -2.6953943   -0.4123235    0.9470787 
H    -1.8668870   -0.0795558   -0.4634967 
C    -1.4497418    2.3189022    0.0700254 
H    -2.8394294    1.7026627    1.5646676 
N    -0.9933739    2.3451037   -1.2809045 
N    -0.7363095    3.0638931    1.0530413 
H    -1.2531571    3.9627133    1.1694296 
H     0.1889965    3.3148498    0.6377092 
H    -1.5116068    1.8310633   -2.0252397 
