15
Energy =
C    -3.6202851    1.3202845   -0.8006995 
C    -2.8405034    1.8117072    0.4139690 
H    -3.1119862    0.4424709   -1.2529932 
H    -3.7216807    2.1263661   -1.5584212 
H    -4.6343733    0.9949992   -0.4850511 
N    -2.7093035    0.6772112    1.3409815 
H    -3.0853313    0.9484889    2.2796826 
H    -1.7071708    0.4165302    1.4984143 
C    -1.4903694    2.4179791    0.0247364 
H    -3.4435340    2.6240328    0.8895940 
N    -1.0989584    3.6872157    0.5377267 
N    -0.5843507    1.7366287   -0.8431807 
H    -1.0247584    1.6999937   -1.7871479 
H    -0.4811298    0.7587123   -0.4968380 
H    -1.7038367    4.2230754    1.1951459 
