15
Energy =
C    -3.6792487    2.4234312    0.5806878 
C    -2.6998806    1.3330810    0.1264642 
H    -3.2869213    2.9468066    1.4793625 
H    -4.6598590    1.9706471    0.8418752 
H    -3.8370812    3.1732875   -0.2232174 
N    -3.2282449    0.6233710   -1.0547162 
H    -2.5991522    0.7293827   -1.8862920 
H    -4.1699456    0.9744692   -1.3494117 
C    -1.3078475    1.9103678   -0.1143207 
H    -2.6041637    0.5913291    0.9562236 
N    -1.0862367    2.8920993   -1.1216278 
N    -0.1945983    1.4721697    0.6602638 
H    -0.1093050    0.4405907    0.5266031 
H    -0.4150154    1.6605016    1.6622708 
H    -1.8683859    3.2302372   -1.7203481 
