15
Energy =
C    -3.7269839    2.7974239    0.0664898 
C    -2.7607035    1.6812750    0.4438845 
H    -3.8675466    2.8166796   -1.0355541 
H    -3.3350912    3.7826565    0.3963009 
H    -4.7144563    2.6193505    0.5411201 
N    -3.3445735    0.4146997   -0.0242965 
H    -3.4666117   -0.2337721    0.7880234 
H    -2.7137903   -0.0774828   -0.6991738 
C    -1.3700043    1.9392100   -0.1292643 
H    -2.6704858    1.6727856    1.5574606 
N    -0.2182206    1.8718690    0.7087440 
N    -1.2029980    2.3069434   -1.4987260 
H    -1.4210889    1.4597438   -2.0651517 
H    -0.1890579    2.5084217   -1.6473401 
H    -0.2907891    1.6179385    1.7173238 
