15
Energy =
C    -3.8380113    2.2450915   -0.5823669 
C    -2.8145713    1.7283622    0.4218762 
H    -3.6107405    1.8590487   -1.5975937 
H    -3.8367964    3.3558186   -0.6046907 
H    -4.8513315    1.8912566   -0.2984669 
N    -2.8524167    0.2579533    0.3784657 
H    -3.0535890   -0.1124081    1.3366061 
H    -1.9269334   -0.1458133    0.0992783 
C    -1.4300404    2.2948621    0.1385946 
H    -3.1124138    2.0959644    1.4360217 
N    -0.7513051    2.0108746   -1.0831739 
N    -0.8137023    3.1633470    1.0858147 
H     0.0382817    3.5638498    0.6323665 
H    -0.4697232    2.5541231    1.8598608 
H    -1.1823347    1.3834679   -1.7954557 
