15
Energy =
C    -3.8093605    2.6735572   -0.3448255 
C    -2.8123995    1.5108774   -0.0683372 
H    -4.8304027    2.3733126   -0.0263284 
H    -3.8801733    2.9521329   -1.4149254 
H    -3.5747323    3.6123067    0.1763512 
N    -2.2785758    0.9637752   -1.3319864 
H    -2.6245105    1.4427395   -2.1933037 
H    -2.5482342   -0.0440123   -1.4192440 
C    -1.6489550    1.7838237    0.8938856 
H    -3.3901667    0.7096197    0.4561062 
N    -1.4842175    2.9914770    1.6443877 
N    -0.7307842    0.7206964    1.1500701 
H    -0.0552098    1.0501182    1.8746867 
H    -0.1802219    0.6053217    0.2713541 
H    -2.1217896    3.8102918    1.6454381 
