15
Energy =
C    -3.4995813    2.4320781    0.9820639 
C    -2.7205003    1.3644048    0.2166362 
H    -3.7180995    3.2940257    0.3157124 
H    -2.9117592    2.7894504    1.8548733 
H    -4.4621943    2.0185890    1.3480156 
N    -3.5229773    0.9472874   -0.9374001 
H    -4.3822494    0.4553860   -0.5966859 
H    -2.9833647    0.2379721   -1.4880577 
C    -1.3680618    1.8994536   -0.2191088 
H    -2.5332330    0.4943492    0.8933481 
N    -1.2655770    2.8640303   -1.2648194 
N    -0.1966410    1.5380397    0.5104112 
H     0.5791252    2.1539197    0.1780817 
H     0.0506664    0.5702122    0.2092576 
H    -2.1182262    3.1465857   -1.7951220 
