15
Energy =
C    -3.7915510    2.6672151   -0.0500807 
C    -2.7345405    1.6485709    0.3983624 
H    -3.5119110    3.6897776    0.2845168 
H    -4.7763656    2.4137985    0.3981626 
H    -3.8971676    2.6649999   -1.1557813 
N    -3.1004068    0.2940966   -0.0576259 
H    -2.3975808   -0.0971511   -0.7283104 
H    -4.0289704    0.2658203   -0.5410141 
C    -1.3281137    2.0530189   -0.0457958 
H    -2.7284745    1.6395895    1.5151237 
N    -0.2524854    2.0581457    0.8868236 
N    -1.0462080    2.4174433   -1.3967637 
H    -1.5485467    3.3099260   -1.5901695 
H    -1.4448124    1.6808984   -2.0168097 
H    -0.3833301    1.7563167    1.8754744 
