15
Energy =
C    -3.6725631    2.8645679    0.1052141 
C    -2.7556718    1.6973981    0.4502097 
H    -4.6584817    2.7292561    0.5968781 
H    -3.8327337    2.9052153   -0.9935709 
H    -3.2261595    3.8249203    0.4390954 
N    -3.4095274    0.4672828   -0.0225965 
H    -3.5488542   -0.1850071    0.7838455 
H    -2.8158254   -0.0462971   -0.7149335 
C    -1.3647720    1.8945406   -0.1459919 
H    -2.6455554    1.6695272    1.5616682 
N    -0.2024789    1.7589389    0.6688975 
N    -1.2050391    2.2725893   -1.5134967 
H    -1.4753095    1.4451727   -2.0866328 
H    -0.1852720    2.4258616   -1.6788716 
H    -0.2688530    1.4949311    1.6753160 
