15
Energy =
C    -3.8499460    1.8551891   -0.6296550 
C    -2.8149733    1.9346843    0.4977044 
H    -3.5425305    1.1023559   -1.3880232 
H    -3.9396796    2.8404419   -1.1358408 
H    -4.8458943    1.5749874   -0.2268013 
N    -2.7529751    0.6470730    1.1969682 
H    -2.5751644   -0.1201299    0.5059650 
H    -3.6817573    0.4481182    1.6367627 
C    -1.4476799    2.3299060   -0.0372290 
H    -3.1327288    2.7245295    1.2200829 
N    -0.8474902    3.5683348    0.3394132 
N    -0.7516718    1.4759447   -0.9439194 
H    -0.3566575    0.7086980   -0.3586597 
H     0.0682343    2.0117905   -1.3052782 
H    -1.3178314    4.2258011    0.9974120 
