15
Energy =
C    -3.4306770    2.1512479   -1.1025737 
C    -2.9066451    1.7357121    0.2698561 
H    -2.7898775    1.7452613   -1.9120013 
H    -3.4632866    3.2582859   -1.1883954 
H    -4.4576082    1.7514501   -1.2438622 
N    -2.9140398    0.2723535    0.3480109 
H    -2.6143627   -0.0195737    1.3084281 
H    -2.2133107   -0.1308992   -0.3166047 
C    -1.5273034    2.3217802    0.5536045 
H    -3.6116147    2.1371307    1.0377605 
N    -0.4089789    2.0176971   -0.2741152 
N    -1.3266435    3.1925078    1.6638207 
H    -1.6055480    2.6719037    2.5240168 
H    -1.9705749    4.0050945    1.5468433 
H    -0.4957963    1.3853267   -1.0959714 
