15
Energy =
C    -3.7482790    2.8140337   -0.0330932 
C    -2.7984772    1.6870271    0.3928479 
H    -3.8247105    2.8521260   -1.1419515 
H    -3.3667568    3.7951798    0.3226468 
H    -4.7593296    2.6500485    0.3952704 
N    -3.2887377    0.3876210   -0.0968102 
H    -4.2059824    0.4673028   -0.5960326 
H    -3.4442007   -0.2562271    0.7133531 
C    -1.3906137    1.9399421   -0.1225879 
H    -2.7546254    1.6816455    1.5087777 
N    -0.2947559    2.0684572    0.7827932 
N    -1.1473260    2.0714968   -1.5229260 
H    -1.3764771    1.1423362   -1.9389715 
H    -0.1202891    2.2058023   -1.6502621 
H    -0.4246827    1.9733784    1.8122927 
