15
Energy =
C    -3.9985623    2.0115641    0.0228765 
C    -2.6040008    1.5489607    0.4668873 
H    -4.7782819    1.3695521    0.4854380 
H    -4.0972253    1.9576810   -1.0819282 
H    -4.1762960    3.0608468    0.3438920 
N    -2.3716162    0.1474227    0.0632415 
H    -1.5746851    0.0626670   -0.6111431 
H    -3.2058525   -0.2817073   -0.4017121 
C    -1.5271557    2.4926899   -0.0444171 
H    -2.5519788    1.6020082    1.5828710 
N    -1.2732292    2.6389220   -1.4393392 
N    -0.8763314    3.3751710    0.8612253 
H    -1.1783239    4.3384569    0.5955875 
H     0.1416107    3.3162267    0.6371790 
H    -1.7877172    2.0600257   -2.1368213 
