15
Energy =
C    -3.6080891    2.5144745    0.7514191 
C    -2.4902001    1.5336026    0.4029406 
H    -4.1876730    2.7750961   -0.1597509 
H    -3.1906910    3.4418435    1.1992688 
H    -4.3066054    2.0529509    1.4803210 
N    -3.0844842    0.3904436   -0.2946990 
H    -3.7147230   -0.1242513    0.3643769 
H    -2.3233796   -0.2835137   -0.5500727 
C    -1.4168581    2.1990154   -0.4523531 
H    -2.0112196    1.1906305    1.3524207 
N    -0.0828355    2.3211323    0.0307007 
N    -1.7014114    2.6698986   -1.7683888 
H    -2.4081744    3.4298182   -1.6803508 
H    -2.1486058    1.8811070   -2.2847243 
H     0.1928000    1.9841422    0.9771060 
