15
Energy =
C    -3.7987995    2.4206842   -0.6571644 
C    -2.8593290    1.8077561    0.3902862 
H    -3.7053788    3.5284408   -0.6562324 
H    -4.8522471    2.1589073   -0.4214490 
H    -3.5550826    2.0455973   -1.6732228 
N    -2.9857881    0.3363920    0.4021888 
H    -2.0809301   -0.1320010    0.1582596 
H    -3.6952828   -0.0121730   -0.2843925 
C    -1.4261850    2.2705448    0.1775221 
H    -3.1607858    2.1916686    1.3963054 
N    -0.7087501    1.9339979   -1.0078314 
N    -0.7457326    2.9623529    1.2191839 
H     0.0233287    3.5067751    0.7682724 
H    -0.2781585    2.2258199    1.7921314 
H    -1.1648208    1.3871110   -1.7688223 
