15
Energy =
C    -3.2301998    2.6483092   -1.2367971 
C    -3.0138736    2.1372871    0.1939557 
H    -2.6732367    3.5977175   -1.3940797 
H    -4.3096095    2.8457991   -1.4104316 
H    -2.8784908    1.9040572   -1.9816851 
N    -3.7646234    0.8855355    0.4155001 
H    -3.1313608    0.0896095    0.6665035 
H    -4.3022121    0.5829877   -0.4307471 
C    -1.5321128    1.9931591    0.5078610 
H    -3.4098154    2.9093920    0.8990803 
N    -0.7135409    1.0747029   -0.2154013 
N    -0.9438700    2.7957783    1.5301570 
H     0.0867666    2.6255304    1.5131841 
H    -1.2880352    2.4116587    2.4376175 
H    -1.1203670    0.4798301   -0.9680021 
