15
Energy =
C    -3.9319283    2.3661377    0.2650755 
C    -2.6431448    1.5348326    0.4562555 
H    -4.3728879    2.6158194    1.2529007 
H    -4.6934371    1.7890451   -0.3037646 
H    -3.8032418    3.3041769   -0.2919203 
N    -2.9016834    0.1899137   -0.0767287 
H    -3.6148695   -0.2824353    0.5265590 
H    -2.0335799   -0.3914255    0.0099676 
C    -1.3434006    2.1063742   -0.1289114 
H    -2.4403852    1.4571083    1.5528453 
N    -1.2112972    3.4103133   -0.7000976 
N    -0.1435562    1.3618589    0.0561159 
H     0.4745430    1.9459464    0.6615638 
H     0.3144279    1.3250841   -0.8813378 
H    -1.9617732    4.1175395   -0.8164295 
