15
 energy: -2.400412144325 gnorm: 0.000540670880 xtb: 6.6.0 (2ccbbd7)
C           -3.79139310028450        2.30299174343094       -0.44238343806696
C           -2.77308727054462        1.80897221377472        0.57341161250904
H           -3.77276242592498        3.38965705174821       -0.53327560153177
H           -4.80140019841856        1.99876727604462       -0.16646624736322
H           -3.57586815359690        1.88548392141512       -1.42545371914979
N           -2.87183063475929        0.36390750267314        0.76042478243607
H           -2.13120740617086        0.03373726859697        1.36633268870071
H           -2.77680226776689       -0.10353123969139       -0.13055856256929
C           -1.37768694960594        2.22944176727146        0.18007436412795
H           -2.99363433603654        2.26877632476747        1.55116069889291
N           -0.98283836593097        3.41815955862164        0.41774998101757
N           -0.56950506463505        1.31666959839468       -0.47216661030566
H           -0.72950867741429        0.31864036168591       -0.40520325121244
H            0.40962081064559        1.53241942402774       -0.57646604008369
H           -1.57562397892655        4.06395843361780        0.86945291886119
