15
Energy =
C    -3.6711352    2.7579424    0.4060402 
C    -2.7191417    1.5689845    0.4139267 
H    -3.2247355    3.6253449    0.9367710 
H    -4.6225294    2.4787664    0.9055096 
H    -3.9056248    3.0420622   -0.6421491 
N    -3.3624521    0.4892117   -0.3491543 
H    -3.6074103   -0.2969144    0.2961087 
H    -2.7107269    0.0920544   -1.0682452 
C    -1.3547125    1.9540735   -0.1512789 
H    -2.5699684    1.2531171    1.4748543 
N    -0.1870820    1.8923044    0.6655254 
N    -1.2163704    2.3400111   -1.5183461 
H    -0.1940102    2.3850631   -1.7271840 
H    -1.5680617    3.3189268   -1.5853446 
H    -0.2316108    1.5944781    1.6637058 
