15
Energy =
C    -3.8797062    2.4216918   -0.1861949 
C    -2.7046298    1.6674912    0.4362564 
H    -4.8381591    1.9763116    0.1574519 
H    -3.8419521    2.3344462   -1.2935135 
H    -3.8856608    3.4896811    0.1105130 
N    -2.9988115    0.2359852    0.2467647 
H    -3.2407122   -0.1997231    1.1674538 
H    -2.2039683   -0.3097877   -0.1510961 
C    -1.3490021    2.1140898   -0.1417313 
H    -2.6666723    1.9122452    1.5262765 
N    -1.0832656    3.4959550   -0.3709303 
N    -0.2149291    1.2467437   -0.1259866 
H    -0.3058860    0.5908565   -0.9311972 
H    -0.2207895    0.7090099    0.7681014 
H    -1.7981222    4.2418553   -0.2510588 
