15
Energy =
C    -3.8328027    2.3160855   -0.5287392 
C    -2.7780351    1.5998189    0.3229362 
H    -3.9445015    3.3692180   -0.1911318 
H    -4.8167403    1.8110537   -0.4307165 
H    -3.5392082    2.3212431   -1.5998165 
N    -2.6624537    0.2016835   -0.1067812 
H    -2.4697724    0.1507912   -1.1339366 
H    -3.5719473   -0.2893694    0.0586094 
C    -1.4381248    2.3080423    0.2670472 
H    -3.0909557    1.6270463    1.3973597 
N    -0.6921654    2.4006070   -0.9444756 
N    -1.0044150    3.0703353    1.3870521 
H    -1.0092429    4.0675936    1.0788623 
H    -0.0026875    2.8147574    1.5326705 
H    -1.0032297    1.9060230   -1.8062920 
