15
Energy =
C    -3.7844361    2.4223430   -0.7851007 
C    -2.9300328    1.7139966    0.2726365 
H    -3.8466053    3.5095602   -0.5621709 
H    -4.8149689    2.0098709   -0.7965688 
H    -3.3339836    2.3010889   -1.7935650 
N    -2.9601258    0.2681858    0.0188092 
H    -2.7043866    0.0782451   -0.9797457 
H    -3.9361386   -0.0860933    0.1545501 
C    -1.5103083    2.2695211    0.3001156 
H    -3.3558144    1.9202606    1.2848745 
N    -0.3656163    1.4265559    0.1696113 
N    -1.3081058    3.6604549    0.5476895 
H    -0.2960175    3.8632068    0.3875642 
H    -1.4768746    3.8063546    1.5666014 
H    -0.4665287    0.3938488    0.0751872 
