15
Energy =
C    -3.5861210    2.6193252    0.6433899 
C    -2.8570757    1.3931887    0.0383174 
H    -2.8827805    3.4573634    0.8430763 
H    -4.0504096    2.3410096    1.6131939 
H    -4.3903753    3.0266081   -0.0011910 
N    -3.4039895    1.0235481   -1.2805069 
H    -4.1904948    1.6327626   -1.5989761 
H    -3.7770731    0.0464039   -1.2448710 
C    -1.3618970    1.6277780   -0.0685284 
H    -2.9722800    0.5333768    0.7456549 
N    -0.8321482    2.5316449   -1.0340743 
N    -0.5012741    1.1639049    0.9651999 
H    -0.1995939    2.0168111    1.4849430 
H     0.3504334    0.8012655    0.4830335 
H    -1.4616310    2.9322413   -1.7629470 
