15
Energy =
C    -3.5265552    2.6433740    0.8032871 
C    -2.6821427    1.4416059    0.3626631 
H    -3.9336336    3.1914477   -0.0715821 
H    -2.9090187    3.3453942    1.4045844 
H    -4.3775420    2.3042657    1.4310412 
N    -3.4978593    0.5412515   -0.4579261 
H    -3.8677817    1.0526459   -1.2933600 
H    -4.3253808    0.2165101    0.0954721 
C    -1.4232497    1.8620605   -0.3765484 
H    -2.3384038    0.8948795    1.2764216 
N    -1.4843188    2.6794401   -1.5449513 
N    -0.1593610    1.3523748    0.0424408 
H     0.5730986    1.8262718   -0.5316333 
H    -0.1507446    0.3508726   -0.2508399 
H    -2.3963296    3.0186603   -1.9155937 
