24
Energy =
C    -0.1172627    2.3193215   -0.5946975 
C    -1.2373969    1.8522749    0.0186835 
C    -1.2908742    0.5620744    0.4204125 
C     0.9420950    1.4964563   -0.8000817 
C     0.8915840    0.1987596   -0.3908412 
C    -0.2356191   -0.2658653    0.2154970 
O    -2.3470391    2.6719209    0.2461479 
H    -2.2394339    3.6243604   -0.0857666 
H    -0.2996363   -1.3018779    0.5380722 
H     1.8273519    1.8828427   -1.3028426 
H    -0.0691857    3.3507816   -0.9258172 
H    -2.1911701    0.1985773    0.9054379 
C     2.0596104   -0.7294506   -0.6476647 
C     1.8921053   -1.5175775   -1.9589635 
H     2.1704884   -1.4383647    0.2015320 
H     3.0156708   -0.1566670   -0.6918052 
C     1.8635626   -0.5862348   -3.1673704 
O     2.8553626    0.3674037   -3.3547865 
O     0.8304602   -0.6731894   -4.0896518 
H     0.0159710   -0.2131539   -3.7114663 
N     2.9897247   -2.4955674   -2.0493146 
H     0.9161783   -2.0570038   -1.9456354 
H     2.7856583   -3.3026845   -1.4151408 
H     3.0297563   -2.8893290   -3.0219380 
