24
Energy =
C    -1.0580944    1.7267963   -0.7056575 
C    -0.2150912    2.7836206   -0.7390659 
C     1.1167045    2.5872364   -0.5461911 
C    -0.5837648    0.4757997   -0.4772627 
C     0.7471346    0.2739718   -0.2753941 
C     1.5964295    1.3378095   -0.3192763 
O    -0.7422422    4.0571560   -0.9753779 
H    -0.0476453    4.7960349   -0.9874406 
H     2.6641687    1.1956447   -0.1721870 
H    -1.2718677   -0.3656424   -0.4695180 
H    -2.1170200    1.8957754   -0.8694420 
H     1.8009954    3.4284067   -0.5753046 
C     1.2819890   -1.1231803   -0.0410100 
C     1.4912946   -1.8796141   -1.3668253 
H     0.5833759   -1.6937992    0.6123029 
H     2.2444359   -1.0654450    0.5166374 
C     2.3374390   -3.1352712   -1.1446990 
O     1.7194969   -4.3410390   -0.8357952 
O     3.7305983   -3.0871225   -1.1826153 
H     4.0770817   -2.1544957   -1.3486899 
N     0.1761155   -2.1774499   -1.9687309 
H     2.0650566   -1.2272730   -2.0651530 
H     0.3219624   -2.5933498   -2.9202218 
H    -0.3113018   -2.9194142   -1.4079546 
