24
Energy =
C     0.1032172    2.0894563   -1.4054014 
C    -1.0608954    1.9631261   -2.0826978 
C    -1.4810304    0.7273488   -2.4545859 
C     0.8645341    0.9967268   -1.0900688 
C     0.4322980   -0.2449219   -1.4701324 
C    -0.7423298   -0.3668777   -2.1501685 
O    -1.8048805    3.1149216   -2.3873456 
H    -2.6665242    2.9216957   -2.8801653 
H    -1.1037636   -1.3445587   -2.4494226 
H     3.5615971    1.5681987    0.4710632 
H     0.4283271    3.0775924   -1.1045025 
H    -2.4117745    0.6106176   -2.9942541 
C     1.2279762   -1.4802208   -1.1125272 
C     1.4493266   -1.6149311    0.4043190 
H     2.2054361   -1.4296324   -1.6375591 
H     0.7154380   -2.3986719   -1.4681878 
C     2.3343411   -0.4851232    0.8918900 
O     3.6486161   -0.7238898    1.2819298 
O     1.9650653    0.8634549    0.7337683 
H     2.4394242    1.4237173   -0.4587757 
N     0.1548185   -1.6851689    1.1082747 
H     2.0028510   -2.5616823    0.5855440 
H     0.3352480   -1.8110849    2.1303377 
H    -0.3118439   -0.7470044    1.0160507 
