24
Energy =
C     0.4528635    2.5496966   -1.4578267 
C    -0.0055394    2.8099809   -0.2046982 
C     0.1093570    1.8672958    0.7580826 
C     1.0240727    1.3521197   -1.7401243 
C     1.1458450    0.4025195   -0.7702399 
C     0.6833212    0.6690296    0.4826480 
O    -0.5956711    4.0359221    0.1195686 
H    -0.6629661    4.6829670   -0.6583037 
H     0.7565814   -0.0776854    1.2701354 
H     1.3807063    1.1600890   -2.7483337 
H     0.3625820    3.2980461   -2.2373399 
H    -0.2692503    2.0821468    1.7516722 
C     1.7722723   -0.9422354   -1.0855040 
C     0.7291820   -2.0390752   -1.4206484 
H     2.3907474   -1.2685380   -0.2190655 
H     2.4824674   -0.8387534   -1.9357520 
C    -0.1444877   -2.3856172   -0.2142210 
O    -1.3745194   -1.7642471   -0.0389478 
O     0.3078686   -3.2525797    0.7816702 
H     1.2218314   -3.6297556    0.5871698 
N    -0.0661543   -1.6677779   -2.6070336 
H     1.2726595   -2.9800218   -1.6614595 
H    -0.7399214   -0.9001374   -2.3621306 
H     0.5523595   -1.3152757   -3.3738951 
