24
Energy =
C     0.3253824    2.4686786   -0.1105523 
C     0.0283459    2.0458668    1.1413939 
C     0.3085612    0.7756496    1.5119638 
C     0.9266661    1.6183058   -0.9950416 
C     1.2257021    0.3464354   -0.6161310 
C     0.9028164   -0.0749494    0.6371839 
O    -0.5851042    2.9142292    2.0378463 
H     0.1000421    3.4816612    2.5264946 
H     1.1102544   -1.0975766    0.9448837 
H     1.1470372    1.9243778   -2.0430176 
H     0.0486140    3.4880304   -0.3793241 
H     0.0453322    0.4428187    2.5107569 
C     1.8734302   -0.5956641   -1.6065153 
C     0.8583534   -1.1222954   -2.6640452 
H     2.3494387   -1.4491840   -1.0706404 
H     2.7256859   -0.0724887   -2.1039379 
C     1.2745913   -0.7564281   -4.0970113 
O     1.5304364   -1.7594278   -5.0367747 
O     1.4095193    0.6023143   -4.4557734 
H     1.2152273    1.2850115   -3.7123388 
N     0.6606406   -2.5719606   -2.4552585 
H    -0.1226904   -0.6033294   -2.5497118 
H    -0.1092766   -2.9143772   -3.0808124 
H     1.5225453   -3.0947606   -2.7479481 
