24
Energy =
C    -0.0524833    1.8739035    0.1603862 
C     0.4285499    2.7854182   -0.7181248 
C     1.3939819    2.4060628   -1.5789756 
C     0.4315318    0.5610750    0.2135476 
C     1.4006159    0.2205166   -0.6917991 
C     1.8622154    1.1417676   -1.5790490 
O    -0.0174412    4.1326576   -0.7017550 
H     0.7630609    4.6914491   -0.4047857 
H     2.5984262    0.8610411   -2.3204547 
H    -0.4860537   -0.9954846    2.7301527 
H    -0.7966331    2.1851011    0.8828293 
H     1.7890911    3.1228592   -2.2901472 
C     1.7469260   -1.2216000   -0.8877117 
C     0.4517827   -1.9729502   -1.2547070 
H     2.1827819   -1.6339767    0.0492345 
H     2.4818615   -1.3522295   -1.6881506 
C    -0.6230488   -1.7895710   -0.1793649 
O    -1.8285787   -2.5091001   -0.2988442 
O    -0.2807760   -1.2847858    1.0892638 
H     0.0110244    0.1418320    1.9002586 
N    -0.0187890   -1.5718214   -2.6024827 
H     0.6831120   -3.0480543   -1.2399525 
H    -0.9836379   -1.9511013   -2.6816114 
H    -0.2112511   -0.5465269   -2.4385521 
