24
Energy =
C    -0.8045684    0.9326361    0.8468841 
C    -0.7796948    2.1888235    0.3267113 
C     0.1658800    2.5170684   -0.5825880 
C     0.1151198    0.0142055    0.4563999 
C     1.0713449    0.3448539   -0.4553515 
C     1.0892459    1.6037873   -0.9747726 
O    -1.7116140    3.1589199    0.7088646 
H    -2.3931580    2.8356262    1.3869715 
H     1.8376284    1.8884636   -1.7109259 
H     0.0806667   -0.9871073    0.8787098 
H    -1.5607775    0.6598325    1.5752534 
H     0.1721746    3.5202903   -0.9950730 
C     2.0851699   -0.6886183   -0.9008577 
C     1.5032034   -1.6569942   -1.9550640 
H     2.4276032   -1.2629397   -0.0123045 
H     3.0000877   -0.2028924   -1.3130804 
C     1.1873020   -0.9555720   -3.2811740 
O     1.8872981    0.1852260   -3.6619137 
O     0.2080237   -1.4503618   -4.1427773 
H    -0.1321935   -2.3497720   -3.8390603 
N     2.4556894   -2.7597594   -2.1539915 
H     0.5424943   -2.0693003   -1.5705445 
H     2.5468134   -3.3142595   -1.2693624 
H     2.0683074   -3.4210314   -2.8672593 
