24
Energy =
C     0.7388923    2.1662579    0.5779221 
C     0.5041043    2.9835927   -0.4832316 
C     0.7622743    2.5437786   -1.7356430 
C     1.2318701    0.9172153    0.3807848 
C     1.5001401    0.4763823   -0.8791118 
C     1.2545735    1.2955004   -1.9386728 
O    -0.0039875    4.2757392   -0.3161582 
H    -0.1696549    4.5322660    0.6510912 
H     1.4494129    0.9570983   -2.9531174 
H     1.4022117    0.2681738    1.2368223 
H     0.5288699    2.5075393    1.5858068 
H     0.5666731    3.2044744   -2.5732001 
C     2.0282888   -0.9242889   -1.1031105 
C     0.8852839   -1.9413954   -1.2821895 
H     2.6648292   -1.2374753   -0.2442380 
H     2.6922882   -0.9336313   -1.9969761 
C     1.4061779   -3.2903958   -1.7909383 
O     2.7358750   -3.6471575   -1.5962207 
O     0.5525954   -4.2023480   -2.4107246 
H    -0.3953929   -3.8586356   -2.4590078 
N     0.1602167   -2.0589775    0.0004451 
H     0.2020980   -1.5554171   -2.0749002 
H    -0.8337549   -1.7556070   -0.1287205 
H     0.1348703   -3.0490882    0.3477993 
