24
Energy =
C     0.2416301    2.1550249   -1.1509177 
C     0.0903841    2.1533328   -2.5033767 
C     0.4581238    1.0615277   -3.2052063 
C     0.7533381    1.0671217   -0.4953677 
C     1.1200432   -0.0291207   -1.2230380 
C     0.9672396   -0.0237175   -2.5758854 
O    -0.4357385    3.2611203   -3.1900015 
H    -0.6989162    4.0020708   -2.5531084 
H     1.2439308   -0.8910772   -3.1634721 
H     1.0851194    1.3379351    2.6423655 
H    -0.0477837    3.0225500   -0.5706408 
H     0.3357025    1.0624067   -4.2790977 
C     1.6384688   -1.2575657   -0.5243019 
C     0.6168887   -1.7977391    0.5000175 
H     2.5854202   -0.9866832   -0.0115879 
H     1.8816576   -2.0594248   -1.2507869 
C     0.4869313   -0.8201758    1.6529452 
O     0.9947765   -1.1355334    2.9122537 
O     0.0768074    0.5153174    1.4600701 
H     1.1429781    1.3935744    1.1797411 
N    -0.6848983   -2.0893014   -0.1326705 
H     1.0177230   -2.7401712    0.9271219 
H    -1.1226950   -1.1602446   -0.3675703 
H    -0.5224159   -2.5652300   -1.0478882 
