24
Energy =
C     0.1957987    2.3286001   -0.8735894 
C     0.6283185    2.7149653    0.3568626 
C     1.3988463    1.8747972    1.0899669 
C     0.5412391    1.1082861   -1.3505527 
C     1.2974601    0.2576752   -0.6194744 
C     1.7399228    0.6507111    0.6055365 
O     0.2983755    3.9645097    0.8910643 
H    -0.2759425    4.5361774    0.2807180 
H     2.3690194   -0.0038709    1.2030893 
H     0.2122336    0.6556644   -2.3882410 
H    -0.4222208    2.9860015   -1.4747927 
H     1.7420575    2.1979812    2.0668065 
C     1.7035640   -1.0798655   -1.2219751 
C     0.5660838   -1.8204544   -1.9807852 
H     2.0746659   -1.7508824   -0.4151646 
H     2.5583572   -0.9213527   -1.9162691 
C     0.1361147   -1.1254638   -3.3009954 
O    -0.1007106    0.2482135   -3.3603630 
O    -0.1360067   -1.8671951   -4.4392199 
H    -0.4336101   -1.2364721   -5.1732033 
N     1.0217335   -3.2167197   -2.1660960 
H    -0.3499711   -1.8057731   -1.3435168 
H     0.4606766   -3.8531133   -1.5532005 
H     0.8674042   -3.5530246   -3.1482987 
