24
Energy =
C    -0.4832146    1.3196152    0.9996507 
C     0.0074938    2.5154138    0.5774899 
C     1.0728803    2.5444215   -0.2551814 
C     0.0952345    0.1622639    0.5893425 
C     1.1732447    0.1906070   -0.2416447 
C     1.6546275    1.3900505   -0.6692144 
O    -0.5649381    3.7261728    0.9801275 
H    -1.3565715    3.6210519    1.6053541 
H     2.5059099    1.4342097   -1.3439394 
H    -0.3142289   -0.7897075    0.9202118 
H    -1.3415847    1.2861365    1.6618909 
H     1.4514800    3.5049795   -0.5873344 
C     1.8048644   -1.0996573   -0.7179000 
C     1.1140601   -1.6369768   -1.9853996 
H     1.7532527   -1.8721886    0.0828264 
H     2.8887178   -0.9351857   -0.9145104 
C     1.9218196   -2.7698065   -2.6297425 
O     2.8228255   -3.5083123   -1.8707165 
O     1.7346869   -3.1139612   -3.9680931 
H     1.0273080   -2.5446896   -4.4092120 
N    -0.2607385   -2.0487272   -1.6285704 
H     1.0871902   -0.8130895   -2.7372379 
H    -0.9503140   -1.4664014   -2.1601015 
H    -0.4477321   -3.0494191   -1.8846974 
