24
Energy =
C    -0.3967749    1.4925575    0.9696801 
C    -0.5050123    2.5574315    0.1424959 
C     0.2219790    2.6067910   -0.9972087 
C     0.4375571    0.4683206    0.6564324 
C     1.1719321    0.5086543   -0.4911209 
C     1.0566099    1.5854770   -1.3181951 
O    -1.3580486    3.6058468    0.4682086 
H    -2.2904660    3.4359848    0.1063852 
H     1.6284340    1.6324959   -2.2422804 
H     0.5120933   -0.3889781    1.3237332 
H    -0.9833442    1.4707416    1.8823516 
H     0.1301836    3.4697194   -1.6490583 
C     2.0883094   -0.6424339   -0.8552476 
C     1.3761716   -1.7472250   -1.6625477 
H     2.5233421   -1.0872080    0.0681374 
H     2.9516303   -0.2676629   -1.4485890 
C     0.2162616   -2.3776795   -0.8960786 
O    -0.9995323   -2.6314725   -1.5218247 
O     0.3724524   -2.7273408    0.4417581 
H    -0.4648368   -3.2031656    0.7570398 
N     0.9892136   -1.2178066   -2.9841499 
H     2.1109312   -2.5701812   -1.8111584 
H     0.7331800   -2.0257577   -3.6006360 
H     0.1095732   -0.6550178   -2.8894253 
