24
Energy =
C     0.2670168    2.2442549    0.3588116 
C    -0.4177619    2.7137318   -0.7181246 
C    -0.2678924    2.1116929   -1.9196989 
C     1.0982574    1.1795678    0.2271217 
C     1.2567099    0.5783386   -0.9836862 
C     0.5615027    1.0457990   -2.0567471 
O    -1.2820233    3.8088234   -0.6183976 
H    -1.3429018    4.2014974    0.3147901 
H     0.6643867    0.5699695   -3.0286513 
H     1.6293864    0.8049096    1.0986584 
H     0.1482526    2.7153971    1.3284093 
H    -0.8240360    2.4942304   -2.7686463 
C     2.1651555   -0.6224698   -1.1277273 
C     1.4092410   -1.9379109   -0.8543321 
H     3.0304837   -0.5364634   -0.4318032 
H     2.6004484   -0.6393880   -2.1528937 
C     2.2233419   -3.1371612   -1.3064660 
O     3.3833143   -3.5030671   -0.6329157 
O     1.8249484   -3.8596045   -2.4224570 
H     2.4855011   -4.6108960   -2.5784045 
N     1.0535178   -2.0071304    0.5765279 
H     0.4811783   -1.9609157   -1.4744417 
H     0.4804093   -2.8678133    0.7488364 
H     1.9269546   -2.1221902    1.1465789 
