24
Energy =
C     0.0812829    2.2090624    0.3808795 
C    -0.7513045    2.4939955   -0.6556197 
C    -0.6495676    1.7922912   -1.8067979 
C     1.0086528    1.2252247    0.2607855 
C     1.1098884    0.5154693   -0.8973844 
C     0.2755000    0.8071586   -1.9327848 
O    -1.7171611    3.5013294   -0.5659762 
H    -1.7355819    3.9794035    0.3285468 
H     0.3439312    0.2561445   -2.8674518 
H     1.6685349    1.0131088    1.0987665 
H     0.0077191    2.7681915    1.3075194 
H    -1.3196302    2.0318543   -2.6254417 
C     2.1379442   -0.5872111   -1.0380593 
C     1.4956767   -2.0073242   -1.0225912 
H     2.9089180   -0.5285476   -0.2358914 
H     2.6900117   -0.4279085   -1.9931967 
C     2.5037991   -3.0988581   -1.4060017 
O     3.6565804   -2.7498149   -2.0963056 
O     2.2395313   -4.4557175   -1.2599266 
H     1.5745746   -4.5459302   -0.5015644 
N     0.8145680   -2.2773561    0.2583774 
H     0.7259756   -2.0560456   -1.8183679 
H     1.1688588   -3.1591075    0.6801673 
H     0.9542412   -1.5114930    0.9653329 
