24
Energy =
C    -0.2403515    2.1033095   -0.1966338 
C    -1.2881576    1.4413960    0.3462158 
C    -1.2320931    0.0991844    0.5052062 
C     0.8757693    1.4259886   -0.5680358 
C     0.9461017    0.0762787   -0.3968158 
C    -0.1206481   -0.5855295    0.1327173 
O    -2.4283894    2.1387956    0.7323169 
H    -2.3604020    2.4318090    1.7005826 
H    -0.0911693   -1.6650408    0.2539049 
H     1.7050511    1.9692772   -1.0165175 
H    -0.3070956    3.1766061   -0.3392274 
H    -2.0875962   -0.4205783    0.9233952 
C     2.1794369   -0.6860168   -0.8335397 
C     2.0271956   -1.2673925   -2.2595171 
H     2.3754711   -1.5119541   -0.1146840 
H     3.0742348   -0.0225220   -0.8025643 
C     1.7987204   -0.1662357   -3.2861479 
O     2.8095507    0.7412996   -3.5843501 
O     0.5662570   -0.0419772   -3.9113610 
H     0.6018442    0.7448354   -4.5464925 
N     3.1843614   -2.1346216   -2.5953302 
H     1.1058195   -1.8930175   -2.2987060 
H     3.7135901   -1.7533836   -3.4189141 
H     3.8845548   -2.1871686   -1.8191207 
