24
Energy =
C     0.4076903    2.3045495   -0.1167230 
C     1.2634422    2.2998391    0.9388687 
C     1.9083917    1.1609232    1.2670882 
C     0.1971193    1.1626423   -0.8392354 
C     0.8716154    0.0177590   -0.5244220 
C     1.7144663    0.0282377    0.5477160 
O     1.4948411    3.4486516    1.7015078 
H     1.0079992    4.2792359    1.3816952 
H     2.2466259   -0.8740049    0.8410698 
H    -0.4814589    1.1996565   -1.7159098 
H    -0.0938980    3.2350860   -0.3809445 
H     2.5860464    1.1681418    2.1142225 
C     0.6653225   -1.3012085   -1.2634195 
C     0.2332515   -1.2596301   -2.7521267 
H    -0.0832318   -1.9050990   -0.7008685 
H     1.6137064   -1.8878227   -1.2182090 
C     1.0761570   -0.3124763   -3.6145128 
O     2.3581479   -0.6853533   -4.0268738 
O     0.5657519    0.9660193   -3.9231516 
H    -0.3588324    1.1730032   -3.5108982 
N     0.2326301   -2.6464453   -3.2585692 
H    -0.8096324   -0.8688854   -2.8294212 
H    -0.2192596   -2.6744259   -4.2062104 
H     1.2163460   -2.9883904   -3.3937672 
