24
Energy =
C    -0.5358486    2.1754043   -1.2389778 
C    -1.0975743    1.7307408   -2.3869043 
C    -0.6292551    0.6076829   -2.9785952 
C     0.4915531    1.4931495   -0.6734505 
C     0.9643692    0.3576097   -1.2591474 
C     0.3972166   -0.0807209   -2.4177143 
O    -2.1575746    2.4290732   -2.9600458 
H    -3.0378078    2.0912836   -2.5875304 
H     0.7588851   -0.9883237   -2.8941680 
H     0.9272334    1.8559971    0.2530423 
H    -0.9166892    3.0776628   -0.7754701 
H    -1.0841718    0.2617046   -3.8997709 
C     2.0983890   -0.4221308   -0.6275868 
C     1.6034437   -1.6981854    0.0947533 
H     2.6683988    0.1987089    0.0967132 
H     2.8233091   -0.7017757   -1.4230095 
C     2.7646450   -2.6342339    0.4391418 
O     4.0525408   -2.3772460   -0.0074928 
O     2.5208076   -3.8351947    1.0795443 
H     1.6408737   -3.6568819    1.5556210 
N     0.7317981   -1.3525021    1.2510514 
H     1.0023152   -2.2968960   -0.6244422 
H     0.9875788   -1.8574178    2.1249300 
H     0.8120252   -0.3387467    1.5069414 
