24
Energy =
C     0.2427455    2.2173585    0.0683904 
C    -0.8309263    1.6754107    0.7024383 
C    -0.9384847    0.3316818    0.8053103 
C     1.2028206    1.4137819   -0.4550711 
C     1.0991298    0.0602763   -0.3472006 
C     0.0173097   -0.4769711    0.2816232 
O    -1.8371327    2.4727497    1.2557268 
H    -1.6940776    3.4686569    1.1225354 
H    -0.0888099   -1.5552283    0.3670990 
H     2.0506180    1.8634690   -0.9687478 
H     0.3350490    3.2942990   -0.0261642 
H    -1.8033452   -0.0852301    1.3099838 
C     2.1550763   -0.8408739   -0.9529937 
C     1.7606144   -1.3209911   -2.3725461 
H     2.3088868   -1.7204843   -0.2890289 
H     3.1363090   -0.3134081   -1.0000889 
C     1.6429655   -0.1509370   -3.3585190 
O     2.6238425    0.8353983   -3.3757715 
O     0.5912791   -0.0652429   -4.2719187 
H    -0.0062165   -0.8787642   -4.2523669 
N     2.6957061   -2.3701998   -2.8459176 
H     0.7488566   -1.7787076   -2.3091696 
H     3.2134206   -2.0581190   -3.7041046 
H     3.4383548   -2.5992871   -2.1435474 
