24
Energy =
C    -0.7610341    1.9384813   -1.4662907 
C    -1.0790907    2.1730307   -0.1722001 
C    -0.3592245    1.5962214    0.8173147 
C     0.2856316    1.1313615   -1.7758959 
C     1.0217126    0.5549890   -0.7849518 
C     0.6889208    0.7880820    0.5155915 
O    -2.1543765    2.9976735    0.1414981 
H    -1.8549069    3.9634653    0.2201961 
H     1.2547431    0.3229380    1.3193563 
H     0.5284908    0.9471966   -2.8197752 
H    -1.3556264    2.3971208   -2.2491348 
H    -0.6335000    1.7817370    1.8506196 
C     2.1752184   -0.3614651   -1.1294903 
C     1.6980474   -1.7855711   -1.4830222 
H     2.8997523   -0.4112616   -0.2854128 
H     2.7341522    0.0746035   -1.9895236 
C     2.8390127   -2.5830901   -2.1088504 
O     2.8651629   -2.7562516   -3.4865654 
O     3.8812768   -3.1046480   -1.3436100 
H     3.7442151   -2.9131147   -0.3613962 
N     1.1663076   -2.4423082   -0.2736246 
H     0.9031773   -1.7268860   -2.2646371 
H     0.2506324   -2.0011346   -0.0202450 
H     0.9383784   -3.4423142   -0.4951059 
