24
Energy =
C    -0.3848207    1.7616568   -2.2494868 
C    -0.7632629    2.4821016   -1.1686424 
C    -0.2375467    2.2053507    0.0467736 
C     0.5305669    0.7680230   -2.1204268 
C     1.0712827    0.4885785   -0.9014451 
C     0.6786682    1.2131054    0.1837919 
O    -1.6965447    3.5057683   -1.3062795 
H    -1.2347523    4.3809975   -1.5257376 
H     1.0901245    1.0009704    1.1668059 
H     0.8247638    0.1950731   -2.9957911 
H    -0.8243168    1.9845174   -3.2151211 
H    -0.5588555    2.7806641    0.9082250 
C     2.0897040   -0.6230424   -0.7593152 
C     1.4393620   -2.0290294   -0.8153562 
H     2.6662721   -0.5243535    0.1870622 
H     2.8393290   -0.5222654   -1.5763745 
C     2.4890978   -3.1350116   -0.9429694 
O     3.8276906   -2.8273436   -1.1288840 
O     2.1104705   -4.4652757   -1.0052230 
H     1.1790994   -4.4943315   -0.6145208 
N     0.5055336   -2.2262160    0.3207285 
H     0.8540083   -2.0998531   -1.7589423 
H     0.5893000   -3.1650839    0.7629929 
H     0.6853143   -1.5415752    1.0969669 
