24
Energy =
C    -0.2413024    1.7261164    0.9339224 
C    -0.0876393    2.6865324   -0.0071915 
C     0.6774864    2.4366532   -1.1034515 
C     0.3612092    0.5203068    0.7892161 
C     1.1286228    0.2636173   -0.3073374 
C     1.2821104    1.2316824   -1.2536926 
O    -0.7258653    3.9181720    0.1746158 
H    -0.5584039    4.5880726   -0.5685296 
H     1.8913930    1.0485807   -2.1359827 
H     0.2207960   -0.2369216    1.5562652 
H    -0.8528675    1.9300716    1.8067478 
H     0.8072369    3.2006452   -1.8626494 
C     1.7981423   -1.0859654   -0.4824121 
C     1.0928406   -1.9703095   -1.5454606 
H     1.8391916   -1.6358983    0.4847441 
H     2.8543078   -0.8976910   -0.7788602 
C     1.9614050   -3.1934330   -1.8709669 
O     3.3472986   -3.0487485   -1.9174971 
O     1.4299956   -4.4455438   -2.2108394 
H     0.4222191   -4.4933258   -2.2234788 
N    -0.2474043   -2.3623969   -1.0760126 
H     0.9861761   -1.3810204   -2.4847695 
H    -0.7763362   -1.5155082   -0.7692551 
H    -0.7954107   -2.7120979   -1.8964308 
