24
Energy =
C     0.8794929    1.6376413    1.1088341 
C     0.5473402    2.6748918    0.3054505 
C     0.6176528    2.5394604   -1.0387023 
C     1.2781307    0.4576036    0.5696832 
C     1.3552304    0.3149391   -0.7827903 
C     1.0163910    1.3632047   -1.5849898 
O     0.1349336    3.8821392    0.8619698 
H    -0.8678902    3.8755953    1.0141765 
H     1.0434624    1.2591675   -2.6672804 
H     1.5285135   -0.3727337    1.2251146 
H     0.8198583    1.7598334    2.1845118 
H     0.3433758    3.3750081   -1.6733782 
C     1.7671776   -1.0103261   -1.3870455 
C     0.5663395   -1.9444177   -1.6116906 
H     2.4911074   -1.5236916   -0.7161902 
H     2.3054292   -0.8560684   -2.3462882 
C    -0.4156651   -1.3709167   -2.6322965 
O    -1.4927115   -0.6171879   -2.1989495 
O    -0.2183777   -1.5085070   -3.9970164 
H     0.5127739   -2.1967274   -4.0945051 
N     1.0757490   -3.2777154   -1.9789422 
H     0.0074069   -2.0378485   -0.6522122 
H     0.2835190   -3.9605810   -2.0903595 
H     1.6788073   -3.2539944   -2.8318782 
