24
Energy =
C     0.1849943    1.4755434    1.2309871 
C    -0.0892733    2.5776758    0.4963842 
C     0.2920733    2.6390960   -0.7998825 
C     0.8363645    0.4253428    0.6686594 
C     1.2191587    0.4766545   -0.6381800 
C     0.9425126    1.5926513   -1.3693284 
O    -0.7569330    3.6515525    1.0765075 
H    -1.7607506    3.5438692    0.9792496 
H     1.2374050    1.6516671   -2.4146430 
H     1.0481638   -0.4549350    1.2718508 
H    -0.1200863    1.4450191    2.2715388 
H     0.0737551    3.5321774   -1.3759452 
C     1.9322362   -0.6978138   -1.2796841 
C     0.9647941   -1.7008824   -1.9545983 
H     2.5546417   -1.2264504   -0.5216532 
H     2.6482472   -0.3234346   -2.0455461 
C     0.0467941   -2.4134120   -0.9524532 
O     0.5355449   -2.7126762    0.3151368 
O    -1.2312432   -2.8688321   -1.2823628 
H    -1.4556716   -2.7456407   -2.2571659 
N     0.2503177   -1.0112194   -3.0426286 
H     1.5839814   -2.5133607   -2.3970666 
H    -0.0902475   -1.7141714   -3.7381707 
H    -0.5794156   -0.4925158   -2.6642472 
