24
Energy =
C    -0.6373783    1.6702141   -2.3197976 
C    -1.3333968    2.0790651   -1.2345980 
C    -0.8946513    1.7482064    0.0090059 
C     0.4938339    0.9348636   -2.1744258 
C     0.9415294    0.6067644   -0.9311210 
C     0.2362212    1.0130628    0.1605055 
O    -2.4951717    2.8335355   -1.4256588 
H    -2.9594347    3.1095654   -0.5673792 
H     0.5700626    0.7443476    1.1600231 
H     1.0369152    0.6119326   -3.0592372 
H    -0.9984719    1.9380216   -3.3072263 
H    -1.4498715    2.0682186    0.8835948 
C     2.1918412   -0.2300634   -0.7679907 
C     1.8940091   -1.7385840   -0.8813224 
H     2.6722824   -0.0269034    0.2157497 
H     2.9350438    0.0766428   -1.5393837 
C     3.1817900   -2.5719164   -0.9880469 
O     4.4244314   -1.9537281   -1.1170056 
O     3.1042664   -3.9712947   -0.9564832 
H     2.1543572   -4.3358050   -0.9331048 
N     1.0574751   -2.1395141    0.2786528 
H     1.3577412   -1.9347550   -1.8431729 
H     0.0568172   -1.9282681    0.0584024 
H     1.0995175   -3.1945816    0.4037540 
