24
Energy =
C     0.1597687    2.0339043    0.6988430 
C    -0.3241202    2.6718287   -0.3918342 
C    -0.0719244    2.1845219   -1.6284053 
C     0.9054383    0.9087529    0.5562865 
C     1.1702350    0.4167555   -0.6861775 
C     0.6731644    1.0599090   -1.7792208 
O    -1.0902420    3.8234460   -0.2417290 
H    -0.4992645    4.6474557   -0.2293963 
H     0.8665198    0.6783674   -2.7788828 
H     1.2833216    0.4047579    1.4422105 
H    -0.0605163    2.4292344    1.6844460 
H    -0.4751014    2.6993582   -2.4942377 
C     1.9840940   -0.8466458   -0.8530073 
C     1.0954757   -2.0848335   -1.1337747 
H     2.6158350   -1.0339352    0.0453356 
H     2.7035250   -0.7031016   -1.6917439 
C     1.9272901   -3.2829776   -1.5575300 
O     3.1781804   -3.5121259   -0.9985784 
O     1.4183549   -4.1975697   -2.4671497 
H     0.8018183   -4.8234768   -1.9694327 
N     0.2700754   -2.4149111    0.0408880 
H     0.4298489   -1.8723901   -2.0021839 
H     0.8813381   -2.5233925    0.8857781 
H    -0.4003774   -1.6339283    0.2340335 
