24
Energy =
C     0.5842466    2.4508553    0.0113669 
C    -0.5028020    2.6350564   -0.7847413 
C    -0.8008538    1.7167432   -1.7316755 
C     1.3657712    1.3521655   -0.1442756 
C     1.0680411    0.4290844   -1.1000179 
C    -0.0231926    0.6163245   -1.8918184 
O    -1.3290664    3.7555063   -0.6502875 
H    -1.0393564    4.3975532    0.0794398 
H    -0.2812257   -0.1116636   -2.6569600 
H     2.2286904    1.2171528    0.5031711 
H     0.8299370    3.1811749    0.7747932 
H    -1.6713933    1.8742781   -2.3590017 
C     1.9255118   -0.8053498   -1.2685456 
C     1.2749376   -2.0628039   -0.6410021 
H     2.9379831   -0.6504268   -0.8303774 
H     2.0940488   -0.9751194   -2.3566244 
C     2.0388923   -3.3147613   -1.0312008 
O     3.3733526   -3.4692384   -0.6692811 
O     1.4302259   -4.2940629   -1.8043289 
H     2.0926297   -5.0453017   -1.9471584 
N     1.1913678   -1.9347518    0.8240801 
H     0.2480514   -2.1978679   -1.0522298 
H     2.1440602   -1.7514723    1.2213983 
H     0.5725637   -1.1303499    1.0788496 
