13
Energy =
C    -3.6376948    1.6129321    0.1188841 
C    -2.4153554    2.5086928   -0.0455008 
C    -4.9065843    2.4027037    0.4951102 
H    -4.7307914    3.0062072    1.4131291 
H    -5.7559928    1.7125008    0.6838403 
H    -5.1798195    3.1034309   -0.3254979 
N    -3.8716651    0.8234259   -1.1071667 
H    -3.3847140    0.9373086    0.9710660 
H    -3.7003203   -0.1911592   -0.9103325 
H    -4.8590421    0.8950675   -1.4512669 
O    -2.5415414    3.8877418   -0.1697428 
O    -1.1494964    1.9436162   -0.0982904 
H    -0.9913149    1.6293567   -1.0443890 
