13
Energy =
C    -3.8552015    1.8952190    0.3091207 
C    -2.6678294    2.8417679    0.2107559 
C    -4.8892380    2.1721141   -0.7864731 
H    -5.7500422    1.4782371   -0.6775008 
H    -4.4372146    2.0192148   -1.7910133 
H    -5.2595454    3.2183403   -0.7194103 
N    -3.4653656    0.4784852    0.2257350 
H    -4.3205386    2.0949100    1.3044177 
H    -2.9398452    0.3172742   -0.6685209 
H    -2.7880152    0.2629639    0.9961164 
O    -1.7005269    2.6718026   -0.7727131 
O    -2.5655037    3.9135451    1.0850606 
H    -1.7258767    4.4328482    0.8602145 
