13
Energy =
C    -3.6783301    1.6711232    0.2677132 
C    -2.5189117    2.6562448    0.1010838 
C    -5.0458613    2.3769190    0.1964738 
H    -5.8674596    1.6533952    0.3902491 
H    -5.2008483    2.8382807   -0.8039388 
H    -5.1087737    3.1813111    0.9639159 
N    -3.6144702    0.5829290   -0.7298836 
H    -3.5539308    1.2533244    1.2976140 
H    -3.5156545   -0.3394318   -0.2419673 
H    -4.4833521    0.5147600   -1.3127414 
O    -1.8708722    3.1346064    1.2336155 
O    -2.1333957    3.1398238   -1.1486431 
H    -2.6581245    2.6878327   -1.8821856 
