13
Energy =
C    -3.7556497    1.7505494    0.3171856 
C    -2.5628569    2.7115950    0.3607412 
C    -4.9097747    2.3065528   -0.5402324 
H    -5.2032592    1.5882871   -1.3367113 
H    -4.6327617    3.2610949   -1.0403107 
H    -5.8009388    2.5009491    0.0926506 
N    -3.4389212    0.3933372   -0.1784800 
H    -4.0960968    1.6974542    1.3792464 
H    -2.4132493    0.2656810   -0.3577374 
H    -3.6991374   -0.3153036    0.5466772 
O    -1.2862508    2.3211595   -0.0303926 
O    -2.7496700    4.0059796    0.8264442 
H    -1.8608805    4.4900545    0.7989394 
