13
Energy =
C    -3.4982576    1.6828977    0.1700793 
C    -2.7473424    2.7690335   -0.6077191 
C    -4.9471620    2.0743465    0.4944000 
H    -5.4364419    1.2682430    1.0828984 
H    -5.5284426    2.2216205   -0.4427868 
H    -4.9827455    3.0205400    1.0773620 
N    -3.5281284    0.3982450   -0.5442124 
H    -2.9506989    1.5563396    1.1335923 
H    -3.9554929    0.5306801   -1.4941016 
H    -2.5500062    0.0578005   -0.7019625 
O    -3.4515865    3.7290568   -1.3251610 
O    -1.3534888    2.8037663   -0.6317229 
H    -0.9448132    2.0247109   -0.1371699 
