13
Energy =
C    -3.6299107    1.5976613    0.1935677 
C    -2.6109300    2.7078727    0.4138722 
C    -5.0305839    2.1541097   -0.0844798 
H    -5.0202377    2.7888489   -0.9986114 
H    -5.3845810    2.7717914    0.7693030 
H    -5.7457164    1.3191551   -0.2472703 
N    -3.2655066    0.7090916   -0.9207557 
H    -3.6602619    1.0147911    1.1461195 
H    -3.1244161    1.2792328   -1.7915406 
H    -2.3464915    0.2487959   -0.7176786 
O    -2.4591051    3.7218010   -0.5223104 
O    -1.7944923    2.6920247    1.5357212 
H    -1.0530080    2.0217797    1.3950531 
