13
Energy =
C    -3.6338013    1.6843438    0.2550435 
C    -2.5151442    2.6960209    0.0482085 
C    -5.0129932    2.3165400    0.0488305 
H    -5.1727261    3.1498083    0.7664571 
H    -5.8058378    1.5530168    0.1993595 
H    -5.0982968    2.7160734   -0.9860927 
N    -3.5230151    0.5281146   -0.6475562 
H    -3.5501809    1.3398335    1.3140369 
H    -3.4567666    0.8702620   -1.6379067 
H    -2.6207255    0.0308255   -0.4548374 
O    -1.6588546    3.0115873    1.0950069 
O    -2.3421672    3.3164711   -1.1825302 
H    -1.5535806    3.9476045   -1.1163909 
