13
Energy =
C    -3.6467112    1.7381383    0.2837997 
C    -2.5655151    2.7869334    0.0513987 
C    -5.0400990    2.2596508   -0.0836837 
H    -5.2964279    3.1545886    0.5240305 
H    -5.8008214    1.4704569    0.0992282 
H    -5.0771764    2.5430540   -1.1585712 
N    -3.4095633    0.4951561   -0.4668015 
H    -3.6262855    1.5174464    1.3791569 
H    -3.3548895    0.6981320   -1.4936551 
H    -2.4860385    0.0864431   -0.1834969 
O    -1.6808181    3.1037596    1.0719584 
O    -2.4371069    3.4201021   -1.1784160 
H    -1.9618766    2.8019670   -1.8183034 
