13
Energy =
C    -3.6534982    1.6300142    0.0643655 
C    -2.4532629    2.5722648    0.0321176 
C    -4.9966803    2.3483874    0.3853009 
H    -4.8723132    3.4522774    0.4551333 
H    -5.3919214    2.0033284    1.3646198 
H    -5.7891674    2.1749342   -0.3704885 
N    -3.7307945    0.8570973   -1.1938771 
H    -3.4309193    0.9382302    0.9128119 
H    -3.4914019   -0.1459424   -1.0097602 
H    -4.6810469    0.8559266   -1.6305100 
O    -2.5837646    3.9012008   -0.3544961 
O    -1.1881593    2.0838352    0.3268730 
H    -0.8417404    1.6052541   -0.4915933 
