13
Energy =
C    -3.6438299    1.7067366    0.2142000 
C    -2.7299232    2.9067637    0.4991283 
C    -4.9781006    2.1573784   -0.3881164 
H    -5.6320769    1.2808783   -0.5833349 
H    -4.7972727    2.6699162   -1.3600218 
H    -5.5105416    2.8566387    0.2915699 
N    -3.0447249    0.7430184   -0.7227648 
H    -3.8262120    1.2112287    1.1971217 
H    -2.0344473    0.5847128   -0.4854279 
H    -3.5219763   -0.1839541   -0.6275702 
O    -1.6565603    3.1881535   -0.3374732 
O    -2.9598856    3.7403198    1.5939679 
H    -3.7773598    3.4642254    2.1159741 
