13
Energy =
C    -3.5842282    1.6152826    0.1905031 
C    -2.4150441    2.5910734    0.0911274 
C    -4.9425565    2.3256363    0.1746525 
H    -5.7662141    1.5955122    0.3168502 
H    -5.0836634    2.8382268   -0.8027018 
H    -4.9940285    3.0901352    0.9801861 
N    -3.5733255    0.6384004   -0.9092624 
H    -3.4539238    1.0943017    1.1682332 
H    -2.6084767    0.2314279   -0.9953887 
H    -4.2037509   -0.1600321   -0.6633434 
O    -2.6208137    3.9594810   -0.0547523 
O    -1.1151034    2.1112470    0.1799576 
H    -0.4787911    2.8940884    0.0947395 
