13
Energy =
C    -3.9284484    1.6664849    0.2485815 
C    -2.8128342    2.2546283    1.1131652 
C    -4.5876054    2.7300330   -0.6441164 
H    -4.9555510    3.5873840   -0.0366886 
H    -5.4486933    2.2975620   -1.1958978 
H    -3.8517368    3.1147915   -1.3839509 
N    -3.4421688    0.5852719   -0.6244557 
H    -4.6810662    1.2699460    0.9704050 
H    -3.0343407   -0.1775890   -0.0309942 
H    -4.2531438    0.1492794   -1.1244305 
O    -2.8945592    3.5639473    1.5719184 
O    -1.7621810    1.4591557    1.5496101 
H    -1.0457502    1.4706141    0.8384419 
