13
Energy =
C    -3.7281704    1.7287426    0.3069909 
C    -2.4403204    2.5400615    0.3005482 
C    -4.9071268    2.4950800   -0.3201542 
H    -5.8460065    1.9073473   -0.2382033 
H    -4.7072618    2.7048629   -1.3948426 
H    -5.0561831    3.4701296    0.1947232 
N    -3.5563187    0.4442871   -0.3892578 
H    -3.9426985    1.5400450    1.3867653 
H    -4.4435440   -0.1108664   -0.3397307 
H    -3.3553904    0.6162165   -1.4052354 
O    -2.0856125    3.3012070   -0.8062953 
O    -1.5766006    2.4779442    1.3839657 
H    -1.0244265    1.6367551    1.2970020 
