13
Energy =
C    -3.9034382    1.8809811    0.3490756 
C    -2.5171546    2.4809788    0.5899233 
C    -4.5698598    2.4458148   -0.9153610 
H    -5.6031788    2.0531624   -1.0210052 
H    -3.9861091    2.1525220   -1.8157720 
H    -4.6209898    3.5567157   -0.8747185 
N    -3.8549940    0.4156742    0.2145255 
H    -4.5066810    2.1666696    1.2432091 
H    -3.4661295    0.0038605    1.0974777 
H    -4.8305126    0.0405166    0.1385207 
O    -2.2056017    3.7529794    0.1243381 
O    -1.5859424    1.8101719    1.3711662 
H    -1.0834352    1.1674511    0.7764734 
