13
Energy =
C    -3.9088415    1.9710708    0.3550343 
C    -2.7779415    2.9883777    0.2480044 
C    -4.9047838    2.0449650   -0.8378548 
H    -5.0350357    1.0820183   -1.3715388 
H    -4.5804048    2.7850764   -1.6042616 
H    -5.9066024    2.3629767   -0.4778862 
N    -3.3586696    0.6106888    0.5314907 
H    -4.4653388    2.2670940    1.2771069 
H    -3.5858449    0.2596375    1.4919178 
H    -3.7423713   -0.0929465   -0.1398505 
O    -2.1870799    3.2760287   -0.9775609 
O    -2.2901276    3.6056577    1.3923772 
H    -1.6414498    2.9748305    1.8410565 
