13
Energy =
C    -3.7078148    1.7614484    0.2859863 
C    -2.4782818    2.6389357    0.0859302 
C    -4.9933926    2.4606708   -0.1701227 
H    -5.8686541    1.8004137    0.0109107 
H    -4.9447952    2.6920610   -1.2567160 
H    -5.1404717    3.4135478    0.3836048 
N    -3.6102695    0.4729001   -0.4172881 
H    -3.7740132    1.5766762    1.3860090 
H    -3.4758858    0.6318756   -1.4444907 
H    -2.7684681   -0.0499913   -0.0734576 
O    -1.5760535    2.8090903    1.1258584 
O    -2.2294480    3.2532305   -1.1347650 
H    -1.8320666    2.5759412   -1.7678958 
