13
Energy =
C    -3.7877013    1.6488550    0.2296105 
C    -2.5867006    2.5968234    0.2829939 
C    -5.1047253    2.4159045    0.0434346 
H    -5.2307341    3.1824166    0.8407216 
H    -5.9711973    1.7216930    0.0918352 
H    -5.1225673    2.9258078   -0.9448039 
N    -3.6680816    0.6675846   -0.8602898 
H    -3.8095540    1.1240222    1.2159166 
H    -2.7966038    0.1002876   -0.7226407 
H    -4.4635370   -0.0128253   -0.8049149 
O    -1.9902236    2.8653138    1.5086911 
O    -2.0910937    3.2219306   -0.8600460 
H    -2.6109798    2.9323327   -1.6761218 
