13
Energy =
C    -3.9076654    1.8256803    0.2880599 
C    -2.6896868    2.7289097    0.5126541 
C    -4.7973421    2.3430414   -0.8560430 
H    -5.6987203    1.7037306   -0.9752381 
H    -4.2355446    2.3476793   -1.8175782 
H    -5.1355149    3.3825601   -0.6489101 
N    -3.5097776    0.4393855    0.0003329 
H    -4.4907340    1.8318807    1.2378566 
H    -4.3578194   -0.1580994   -0.1443726 
H    -2.9479872    0.4030846   -0.8858243 
O    -1.5988665    2.6386251   -0.3450909 
O    -2.6759683    3.7038280    1.5122379 
H    -3.5310510    3.7239097    2.0459592 
