13
Energy =
C    -3.6281724    1.5727664    0.1356678 
C    -2.6510583    2.6990993    0.4711674 
C    -5.0387144    2.0906912   -0.2124095 
H    -5.0894564    3.2023103   -0.2017215 
H    -5.7861382    1.6986123    0.5085536 
H    -5.3412070    1.7679405   -1.2324516 
N    -3.1649078    0.7221387   -0.9792986 
H    -3.6945819    0.9675126    1.0724608 
H    -2.2005885    0.9928224   -1.2917281 
H    -3.1030094   -0.2727019   -0.6585966 
O    -1.7022773    2.5170127    1.4692389 
O    -2.6661203    3.8963910   -0.2340681 
H    -1.9225620    4.4865747    0.1170453 
