13
Energy =
C    -3.8144596    1.7071927    0.2165919 
C    -2.5497523    2.4211330    0.6953924 
C    -4.8018084    2.6479773   -0.5159288 
H    -5.0586275    2.2637433   -1.5272801 
H    -4.3806705    3.6673900   -0.6669533 
H    -5.7437148    2.7518303    0.0632877 
N    -3.4979210    0.5718667   -0.6660412 
H    -4.3017782    1.3317347    1.1489296 
H    -2.8622618   -0.0958432   -0.1687557 
H    -4.3751796    0.0342440   -0.8658455 
O    -1.9696205    3.4408405   -0.0496386 
O    -1.9361205    2.0204354    1.8749954 
H    -1.4224496    1.1699363    1.6997532 
