13
Energy =
C    -3.8083205    1.6484929    0.1762228 
C    -2.5126013    2.4040412    0.4286947 
C    -4.9941583    2.6090025   -0.0157096 
H    -5.9383675    2.0442019   -0.1659279 
H    -4.8175941    3.2642407   -0.8984346 
H    -5.1127199    3.2590885    0.8786700 
N    -3.6978896    0.7677394   -0.9964979 
H    -3.9751925    1.0254955    1.0874147 
H    -4.6057531    0.2750143   -1.1666677 
H    -3.4803916    1.3410194   -1.8483849 
O    -1.8343027    2.2459721    1.6320597 
O    -2.0186813    3.2913070   -0.5219737 
H    -1.1512537    3.6841032   -0.1798643 
