13
Energy =
C    -3.8059417    1.7888100    0.4012764 
C    -2.3585158    2.2768796    0.4093456 
C    -4.6865290    2.5522508   -0.6091475 
H    -4.1094750    3.3037991   -1.1904147 
H    -5.4983398    3.0907905   -0.0745319 
H    -5.1718374    1.8584481   -1.3304264 
N    -3.9197790    0.3458316    0.1299591 
H    -4.1900694    1.9908959    1.4307709 
H    -3.3766360    0.1070541   -0.7359954 
H    -3.4554339   -0.1823538    0.9074056 
O    -1.9598962    3.2417796    1.3225089 
O    -1.4484677    1.8265112   -0.5392386 
H    -1.6152781    2.3072438   -1.4100367 
