13
Energy =
C    -3.6734755    1.6165953    0.1986142 
C    -2.4074024    2.4709356    0.2766764 
C    -4.9360593    2.4866047    0.2326855 
H    -5.8478898    1.8520990    0.2412684 
H    -4.9789381    3.1425290   -0.6643779 
H    -4.9465757    3.1276262    1.1422093 
N    -3.7157312    0.7965155   -1.0223818 
H    -3.6545183    0.9601683    1.1036082 
H    -2.8495331    0.2063325   -1.0761809 
H    -4.5165881    0.1232778   -0.9625216 
O    -1.7157167    2.5442737    1.4787329 
O    -1.9452734    3.2047496   -0.8142720 
H    -2.5341496    3.0555265   -1.6211227 
