13
Energy =
C    -3.8236401    1.6966156    0.3444840 
C    -2.7107002    2.7054084    0.5852213 
C    -4.9274527    2.2721830   -0.5472106 
H    -5.3830980    3.1687251   -0.0738741 
H    -5.7197086    1.5093775   -0.7066970 
H    -4.5135776    2.5618413   -1.5383301 
N    -3.3375160    0.4534938   -0.2743026 
H    -4.2548386    1.4691345    1.3493873 
H    -2.8041322    0.6834930   -1.1489952 
H    -2.6512896   -0.0037960    0.3725744 
O    -1.9019813    3.1297784   -0.4638244 
O    -2.5049422    3.2200560    1.8577843 
H    -1.7334138    3.8744601    1.8256983 
