13
Energy =
C    -3.6383501    1.6689912    0.3313045 
C    -2.5212549    2.7009912    0.1606066 
C    -5.0270866    2.2854021    0.1469855 
H    -5.8122945    1.5252157    0.3422550 
H    -5.1392188    2.6520618   -0.8961023 
H    -5.1713692    3.1441375    0.8386041 
N    -3.5437059    0.5339681   -0.6087058 
H    -3.5432301    1.3127900    1.3843442 
H    -2.6814907    0.5975142   -1.2044250 
H    -3.4533985   -0.3583478   -0.0687671 
O    -1.2131065    2.2872361   -0.0630542 
O    -2.7761917    4.0579448    0.3188569 
H    -1.9084116    4.5645029    0.1954637 
