13
Energy =
C    -3.4994579    1.6984951    0.2902425 
C    -2.6049063    2.8693337   -0.1263564 
C    -4.9771351    2.1052052    0.3379573 
H    -5.5997722    1.2625664    0.7048167 
H    -5.3203761    2.3792619   -0.6843384 
H    -5.1316360    2.9806731    1.0045599 
N    -3.3906130    0.5538470   -0.6281104 
H    -3.1632469    1.4013988    1.3107433 
H    -2.3793357    0.3294768   -0.7997642 
H    -3.8021504   -0.2950064   -0.1740775 
O    -1.3918570    2.6376488   -0.7616284 
O    -2.9129016    4.1677473    0.2644801 
H    -2.7222942    4.2709774    1.2498353 
