13
Energy =
C    -3.8613448    1.9644487    0.3454981 
C    -2.6284311    2.8394419    0.1719441 
C    -4.9075673    2.1837796   -0.7765278 
H    -4.5520016    2.9197930   -1.5330776 
H    -5.8561511    2.5717813   -0.3474259 
H    -5.1394537    1.2441786   -1.3224511 
N    -3.5026918    0.5397224    0.4260590 
H    -4.2906448    2.2815017    1.3263791 
H    -4.3641130   -0.0380856    0.5691786 
H    -3.0590946    0.2376523   -0.4760070 
O    -1.7742877    2.6541405   -0.9106169 
O    -2.3796482    3.8744035    1.0641605 
H    -1.5218370    4.3368433    0.7914332 
