13
Energy =
C    -3.7686879    1.8169699    0.2689824 
C    -2.6434975    2.8413024    0.1720621 
C    -4.9551328    2.1807584   -0.6309543 
H    -5.3975565    3.1554606   -0.3330745 
H    -5.7399033    1.3963589   -0.5547668 
H    -4.6311385    2.2435926   -1.6936021 
N    -3.3338846    0.4557571   -0.0827059 
H    -4.1010639    1.8324995    1.3354024 
H    -2.9510558    0.4547868   -1.0603164 
H    -2.5329022    0.1769786    0.5341230 
O    -1.7241550    2.7881315   -0.8671311 
O    -2.5621368    3.8731629    1.0963957 
H    -3.2442337    4.5793994    0.8626952 
