13
Energy =
C    -3.6184289    1.6172913    0.2477947 
C    -2.4536495    2.5862922    0.0188098 
C    -4.9778100    2.3171184    0.1720679 
H    -5.7928164    1.5921395    0.3807426 
H    -5.1313975    2.7343613   -0.8472703 
H    -5.0389666    3.1480591    0.9084272 
N    -3.6541859    0.5051868   -0.7221317 
H    -3.4824486    1.2249090    1.2829239 
H    -2.8228646    0.5231359   -1.3641512 
H    -3.6118511   -0.4082204   -0.2123634 
O    -2.6225604    3.9540713    0.1949050 
O    -1.1817375    2.0989697   -0.2553247 
H    -0.7580297    1.7805033    0.6037034 
