13
Energy =
C    -3.6380751    1.6032874    0.2884704 
C    -2.4967303    2.6106003    0.3576695 
C    -4.9699628    2.2970974    0.0034611 
H    -5.1862719    3.0687764    0.7733722 
H    -5.7933924    1.5521024   -0.0044124 
H    -4.9304091    2.7836338   -0.9970581 
N    -3.4477553    0.5754120   -0.7532447 
H    -3.6816584    1.1343203    1.3018242 
H    -2.4850031    0.6235857   -1.1684278 
H    -3.5444250   -0.3772589   -0.3299971 
O    -2.1281072    3.3485862   -0.7613664 
O    -1.8201085    2.8080746    1.5531866 
H    -1.1061033    3.5108403    1.4076463 
