13
Energy =
C    -3.7684823    1.7485299    0.2968358 
C    -2.6406579    2.7906306    0.3615876 
C    -4.9232673    2.2424654   -0.5741368 
H    -4.5681473    2.4019414   -1.6174104 
H    -5.3389419    3.1960176   -0.1830918 
H    -5.7319251    1.4805871   -0.6038766 
N    -3.3469294    0.4433110   -0.2486870 
H    -4.1389820    1.6175127    1.3413487 
H    -2.3097175    0.3970596   -0.4055524 
H    -3.5792461   -0.3203533    0.4290532 
O    -1.6043186    2.7591927   -0.5640779 
O    -2.6575862    3.8147667    1.3085014 
H    -3.4884239    3.7933831    1.8798400 
