13
Energy =
C    -3.5927080    1.6760695    0.3100786 
C    -2.6110045    2.7443959   -0.1940402 
C    -5.0648916    2.0912684    0.1391757 
H    -5.7414768    1.3116316    0.5490808 
H    -5.3053305    2.2471883   -0.9351379 
H    -5.2667637    3.0445762    0.6772809 
N    -3.3888472    0.3740562   -0.3479448 
H    -3.3711034    1.5762092    1.3992245 
H    -3.9916104   -0.3529592    0.1081931 
H    -3.6801122    0.4262193   -1.3552711 
O    -3.0064069    4.0760787   -0.2472926 
O    -1.2925204    2.4303796   -0.5166663 
H    -1.1346690    1.4367199   -0.4325867 
