13
Energy =
C    -3.8023307    1.7489029    0.2834951 
C    -2.6045298    2.7023749    0.4167047 
C    -4.8894480    2.3543796   -0.6040798 
H    -5.7682438    1.6755117   -0.6464096 
H    -4.5029930    2.4802345   -1.6410299 
H    -5.2178446    3.3433747   -0.2175678 
N    -3.4574549    0.4347217   -0.2938203 
H    -4.2181050    1.6107758    1.3096548 
H    -2.4237505    0.3269623   -0.4433325 
H    -3.7464542   -0.3309855    0.3594586 
O    -1.5748486    2.6633079   -0.5160239 
O    -2.5504913    3.6595517    1.4300923 
H    -3.3760789    3.6519212    2.0094570 
