13
Energy =
C    -3.5015402    1.7506389    0.2459215 
C    -2.7578802    2.8717698   -0.4760753 
C    -4.9934200    2.0805192    0.4857285 
H    -5.6589068    1.3020718    0.0529623 
H    -5.2886027    3.0466223    0.0163014 
H    -5.2058457    2.1501424    1.5735729 
N    -3.4106657    0.4815799   -0.4939757 
H    -2.9893513    1.6457880    1.2335213 
H    -2.4003306    0.2377153   -0.6366098 
H    -3.8038118   -0.2884768    0.0984845 
O    -1.4554981    3.1842117   -0.1107047 
O    -3.3340438    3.5341064   -1.5518807 
H    -3.1528937    2.9896471   -2.3824302 
