13
Energy =
C    -3.5915510    1.6764755    0.2485890 
C    -2.4177796    2.6361877    0.0328645 
C    -4.9705731    2.3264156   -0.0075495 
H    -4.8856944    3.3798278   -0.3534190 
H    -5.5778082    2.3216244    0.9216435 
H    -5.5364094    1.7803367   -0.7933346 
N    -3.4910361    0.4727921   -0.5959219 
H    -3.5183932    1.3870160    1.3234327 
H    -2.5063451    0.1068827   -0.5716384 
H    -4.0912609   -0.2808069   -0.1870483 
O    -2.5795117    4.0105925    0.1752505 
O    -1.1386764    2.1358792   -0.1804424 
H    -0.4989333    2.9155688   -0.2678900 
