13
Energy =
C    -3.8207000    1.8904700    0.3233083 
C    -2.7640323    2.9789875    0.1777823 
C    -5.0145235    2.1369540   -0.6039392 
H    -5.4893421    3.1170142   -0.3795435 
H    -5.7697724    1.3327634   -0.4718593 
H    -4.6852316    2.1400675   -1.6666227 
N    -3.2929541    0.5465511    0.0412334 
H    -4.1795139    1.9345342    1.3792585 
H    -2.8683957    0.5338890   -0.9191486 
H    -2.5130738    0.3292539    0.7062983 
O    -2.0879849    3.1471226   -1.0229602 
O    -2.4672950    3.8129177    1.2463891 
H    -1.8622113    3.3244428    1.8896673 
