13
Energy =
C    -3.4916618    1.7084133    0.2866732 
C    -2.6434985    2.9274724   -0.0493767 
C    -4.9874877    2.0144903    0.1524335 
H    -5.2671843    2.8866380    0.7824171 
H    -5.5945332    1.1387007    0.4628585 
H    -5.2272215    2.2536722   -0.9078205 
N    -3.1750424    0.5709301   -0.5900648 
H    -3.2616199    1.4539777    1.3497888 
H    -2.1502734    0.3575496   -0.5170259 
H    -3.6664426   -0.2849009   -0.2379412 
O    -1.5225766    3.2209256    0.7145600 
O    -2.9375057    3.7175628   -1.1526155 
H    -2.5226482    3.2860820   -1.9656650 
