13
Energy =
C    -3.6949929    1.7339201    0.3372021 
C    -2.5194139    2.6992320    0.2330561 
C    -4.8863417    2.1844279   -0.5146603 
H    -5.2274022    3.1978798   -0.2077220 
H    -5.7301001    1.4721871   -0.3843008 
H    -4.6148184    2.2053415   -1.5919055 
N    -3.3467383    0.3581545   -0.0533665 
H    -3.9986190    1.7466235    1.4124816 
H    -2.9785686    0.3564091   -1.0354449 
H    -2.5509616    0.0224760    0.5421769 
O    -2.3917120    3.7283797    1.1541327 
O    -1.6048071    2.6038807   -0.8076070 
H    -2.0070191    3.0183602   -1.6347982 
