13
Energy =
C    -4.0551771    2.0492391    0.2389527 
C    -2.8620154    2.9876847    0.4689824 
C    -4.5483803    2.0553133   -1.2225184 
H    -5.4474535    1.4125549   -1.3368207 
H    -3.7479411    1.6864177   -1.9028459 
H    -4.8204448    3.0871617   -1.5378084 
N    -3.7303108    0.6691287    0.6535602 
H    -4.8759781    2.4578264    0.8750227 
H    -4.2627019    0.4257836    1.5223220 
H    -4.0037263   -0.0453082   -0.0631110 
O    -2.4039688    3.8084444   -0.5573927 
O    -2.2566072    3.0897207    1.7219412 
H    -2.6263392    2.4059341    2.3653361 
