13
Energy =
C    -3.8260642    1.7430808    0.3424544 
C    -2.5294199    2.5454453    0.3337132 
C    -4.9642139    2.5089286   -0.3374361 
H    -5.8980629    1.9080095   -0.3016819 
H    -4.7126635    2.7110641   -1.4016224 
H    -5.1431735    3.4793798    0.1746801 
N    -3.6984825    0.4305433   -0.3102031 
H    -4.0943482    1.5917672    1.4156653 
H    -3.3849582    0.5475579   -1.3035964 
H    -2.9690263   -0.1370321    0.1845611 
O    -2.0158353    3.0421388    1.5227701 
O    -1.8729343    2.8285240   -0.8573392 
H    -1.3547986    2.0130783   -1.1468247 
