13
Energy =
C    -3.7745517    1.6713448    0.3833042 
C    -2.4837249    2.4911079    0.4651254 
C    -4.8261859    2.3695189   -0.4941732 
H    -4.4642305    2.4618945   -1.5417934 
H    -5.0392147    3.3904824   -0.1054063 
H    -5.7755573    1.7921500   -0.4895218 
N    -3.5382504    0.2946173   -0.1041846 
H    -4.1582197    1.6439252    1.4336641 
H    -3.8882232   -0.3951882    0.6041165 
H    -4.0488134    0.0806030   -0.9953027 
O    -2.3958673    3.5094816    1.4056808 
O    -1.4266736    2.3106625   -0.4250350 
H    -1.5919845    1.5052449   -1.0086449 
