13
Energy =
C    -3.5936969    1.7040687    0.2737067 
C    -2.5361250    2.7886837    0.0980522 
C    -5.0182714    2.2484168    0.1262967 
H    -5.2029176    3.0683499    0.8542818 
H    -5.7501944    1.4334437    0.3176267 
H    -5.1910662    2.6276927   -0.9038545 
N    -3.4313982    0.5947890   -0.6782708 
H    -3.4647542    1.3199865    1.3154680 
H    -3.3976873    0.9751515   -1.6557994 
H    -2.4995150    0.1413362   -0.5186797 
O    -1.8126393    3.2319880    1.1954851 
O    -2.2997216    3.3606279   -1.1457507 
H    -3.0236350    4.0357326   -1.3397895 
