13
Energy =
C    -3.5781105    1.7537204    0.3955563 
C    -2.5135350    2.6048499   -0.3070984 
C    -4.9567547    2.4452242    0.4615865 
H    -4.9592373    3.4310835   -0.0528995 
H    -5.2544934    2.6120436    1.5176144 
H    -5.7431634    1.8251276   -0.0212529 
N    -3.7766807    0.4217104   -0.2155482 
H    -3.1865385    1.6409704    1.4345511 
H    -3.0898366    0.2397864   -0.9881738 
H    -3.6082647   -0.3212832    0.5024334 
O    -1.4212184    2.0061280   -0.9257841 
O    -2.5564566    3.9918509   -0.2334144 
H    -1.7488719    4.3652069   -0.7164690 
