13
Energy =
C    -3.6190124    1.7527822    0.3518832 
C    -2.4213276    2.5328032   -0.1799770 
C    -4.9360426    2.5340178    0.1867955 
H    -5.7713736    1.9800789    0.6668418 
H    -5.1750111    2.6737897   -0.8907900 
H    -4.8601575    3.5324317    0.6712767 
N    -3.7213843    0.4308409   -0.2970957 
H    -3.4268535    1.6248480    1.4448977 
H    -3.5866082   -0.3263297    0.4137906 
H    -4.6532455    0.2651977   -0.7453993 
O    -1.4997106    3.0710229    0.7094492 
O    -2.2758184    2.7927111   -1.5380904 
H    -2.8641999    3.5715974   -1.7872926 
