13
Energy =
C    -3.8329797    1.8585716    0.4220555 
C    -2.5112745    2.6134089    0.4080520 
C    -4.6861866    2.1497555   -0.8439555 
H    -4.1537773    2.8281623   -1.5494520 
H    -5.6350672    2.6513713   -0.5562756 
H    -4.9533546    1.2428010   -1.4229563 
N    -3.5950064    0.4113265    0.6075807 
H    -4.3844197    2.2598903    1.3070456 
H    -4.0056396    0.1017179    1.5204145 
H    -4.0284894   -0.1877540   -0.1317197 
O    -2.1895740    3.4800888    1.4446918 
O    -1.6086544    2.4389925   -0.6323687 
H    -1.0348472    1.6383637   -0.4122222 
