13
Energy =
C    -3.6299499    1.6771049    0.2830971 
C    -2.5060295    2.6903106    0.0996825 
C    -5.0260540    2.2806267    0.0123512 
H    -5.5502700    1.7410896   -0.8067528 
H    -4.9685997    3.3524837   -0.2846509 
H    -5.6625687    2.2087396    0.9196632 
N    -3.4573175    0.4906299   -0.5712888 
H    -3.5758370    1.3703724    1.3562476 
H    -3.3681566    0.7947604   -1.5727947 
H    -2.5599454    0.0076357   -0.3281227 
O    -2.4075957    3.4309852   -1.0703221 
O    -1.5450000    2.8521709    1.0874223 
H    -0.8842027    2.0910182    1.0333769 
