13
Energy =
C    -3.8201367    1.6830566    0.2511320 
C    -2.4655367    2.1991032    0.7194931 
C    -4.6349339    2.7774641   -0.4454298 
H    -5.6245199    2.3752847   -0.7510581 
H    -4.1038861    3.1341351   -1.3557240 
H    -4.7929778    3.6427020    0.2343152 
N    -3.7029242    0.5425849   -0.6703840 
H    -4.3702940    1.3645758    1.1684994 
H    -3.0744551    0.7986897   -1.4714184 
H    -3.2453036   -0.2603273   -0.1768755 
O    -1.6130464    2.8448382   -0.1664843 
O    -2.0582488    2.0010704    2.0312250 
H    -1.7192921    1.0554528    2.1315409 
