13
Energy =
C    -3.6660153    1.6696202    0.3312577 
C    -2.4655042    2.6118928    0.1969039 
C    -4.9403586    2.3186750   -0.2096381 
H    -5.1371230    3.2866461    0.3014634 
H    -5.8081984    1.6450566   -0.0479892 
H    -4.8371945    2.5014631   -1.3013363 
N    -3.5135948    0.3739413   -0.3619979 
H    -3.7881406    1.5100157    1.4289146 
H    -2.5463394    0.2517518   -0.7508687 
H    -3.6520527   -0.4056714    0.3219760 
O    -2.5080049    3.8653873    0.7953960 
O    -1.3108898    2.2343825   -0.4795118 
H    -0.6502183    3.0006481   -0.4406873 
