13
Energy =
C    -3.6515973    1.6359476    0.3168355 
C    -2.5215903    2.6648251    0.3390162 
C    -5.0309073    2.2743574    0.4982723 
H    -5.2548338    2.9533568   -0.3529027 
H    -5.0717262    2.8621332    1.4410681 
H    -5.8139613    1.4869672    0.5274388 
N    -3.6948168    0.8433952   -0.9277269 
H    -3.4550783    0.9722699    1.1940653 
H    -2.9542423    1.1457895   -1.6062735 
H    -3.4903892   -0.1605109   -0.7089087 
O    -1.2318033    2.2564439    0.6465925 
O    -2.7407275    3.9870995   -0.0258609 
H    -2.7183791    4.0537526   -1.0322755 
