13
Energy =
C    -3.6825147    1.6913901    0.3033214 
C    -2.4537148    2.5990411    0.3060197 
C    -4.9398057    2.4059011   -0.2330885 
H    -5.3768746    1.8523365   -1.0934452 
H    -4.7161983    3.4345461   -0.5952175 
H    -5.7154409    2.4781057    0.5581094 
N    -3.4882905    0.4580402   -0.4857114 
H    -3.8498469    1.4374130    1.3789161 
H    -2.4984037    0.3565230   -0.8178679 
H    -3.7044007   -0.3813764    0.1024609 
O    -2.1143780    3.3409017   -0.8177411 
O    -1.6321281    2.6519090    1.4235824 
H    -1.0338963    1.8388821    1.4301472 
