13
Energy =
C    -3.6836147    1.6704288    0.1926130 
C    -2.4305058    2.5238613    0.0533862 
C    -4.9635801    2.5140152    0.0641773 
H    -4.9791414    3.3141944    0.8372402 
H    -5.8664074    1.8809347    0.1975649 
H    -5.0083661    3.0006877   -0.9361818 
N    -3.7161044    0.5810035   -0.7963179 
H    -3.6271808    1.2337913    1.2192398 
H    -4.5393891   -0.0402519   -0.6114513 
H    -3.8382965    0.9759383   -1.7604349 
O    -1.7000710    2.8713147    1.1820147 
O    -2.0403919    3.0162021   -1.1853924 
H    -1.4987515    2.3025757   -1.6507917 
