13
Energy =
C    -3.5778086    1.6799576    0.2341708 
C    -2.4995348    2.7493530    0.0910930 
C    -4.9995253    2.2582466    0.1123265 
H    -5.1461252    3.0855088    0.8416383 
H    -5.7560544    1.4734483    0.3293846 
H    -5.1824956    2.6483430   -0.9129266 
N    -3.4064138    0.6019941   -0.7512588 
H    -3.4363081    1.2593692    1.2593227 
H    -4.1655201   -0.1115220   -0.6460269 
H    -3.4645331    0.9922722   -1.7234939 
O    -1.7208695    3.0989442    1.1862675 
O    -2.3264318    3.4325496   -1.1077451 
H    -3.0484730    4.1306700   -1.1949583 
