13
Energy =
C    -3.6210574    1.6321886    0.2551165 
C    -2.5460141    2.7098719    0.2090966 
C    -5.0236887    2.2151712    0.0501246 
H    -5.2564652    2.9662140    0.8360831 
H    -5.7818773    1.4036677    0.0907893 
H    -5.0953520    2.7113522   -0.9433836 
N    -3.4129215    0.5826814   -0.7545560 
H    -3.5665177    1.1863602    1.2778663 
H    -3.3535085    1.0202521   -1.7075441 
H    -2.4920570    0.1115702   -0.5880395 
O    -2.4575177    3.5724325   -0.8752281 
O    -1.6193603    2.8139057    1.2366983 
H    -0.9185661    2.0963055    1.1233123 
