13
Energy =
C    -3.7492600    1.7567767    0.3634426 
C    -2.5784195    2.7387307    0.1931438 
C    -5.0649120    2.2077538   -0.3383608 
H    -5.4799580    1.4543299   -1.0378187 
H    -4.9338141    3.1383569   -0.9328729 
H    -5.8491584    2.4171313    0.4204867 
N    -3.3462734    0.3977767   -0.0563663 
H    -3.9552621    1.7525755    1.4602880 
H    -3.2722393   -0.2279319    0.7805293 
H    -4.0180334   -0.0655122   -0.7103577 
O    -2.5994258    3.7104391   -0.8028470 
O    -1.4664502    2.6768766    1.0338067 
H    -1.5056361    1.8682962    1.6359891 
