13
Energy =
C    -4.0292892    2.0506873    0.2631942 
C    -2.8030865    2.9694040    0.3493531 
C    -4.7001566    2.0766186   -1.1252267 
H    -3.9937151    1.7091515   -1.9035439 
H    -4.9989675    3.1143917   -1.3922071 
H    -5.6127672    1.4429284   -1.1346151 
N    -3.6742575    0.6634377    0.6249419 
H    -4.7585080    2.4652874    0.9992171 
H    -4.0938774    0.4204656    1.5534781 
H    -4.0453533   -0.0420297   -0.0556320 
O    -2.4263257    3.7473144   -0.7413048 
O    -2.0759189    3.0885327    1.5341176 
H    -2.3928742    2.4277225    2.2275828 
