13
Energy =
C    -3.8946189    1.9129289    0.3262953 
C    -2.7191460    2.8779023    0.3382530 
C    -4.8139937    2.1505943   -0.8845272 
H    -5.7025920    1.4860971   -0.8368338 
H    -4.2660475    1.9528095   -1.8322919 
H    -5.1670046    3.2059332   -0.9011384 
N    -3.4493488    0.5108317    0.3350216 
H    -4.4529416    2.1253348    1.2693886 
H    -4.2777564   -0.1291568    0.3236247 
H    -2.8860466    0.3134753   -0.5281864 
O    -1.6947772    2.7632930   -0.5964044 
O    -2.6997936    3.9328284    1.2413807 
H    -1.8491476    4.4627182    1.1002292 
