13
Energy =
C    -3.5181771    1.5399821    0.0763149 
C    -2.4181267    2.5741560   -0.1521685 
C    -4.7839675    2.1743841    0.6618350 
H    -5.2052522    2.9062368   -0.0641397 
H    -4.5566518    2.7063688    1.6104138 
H    -5.5528775    1.3983215    0.8577321 
N    -3.8904657    0.8550316   -1.1704699 
H    -3.1091860    0.8029846    0.8068537 
H    -3.0217083    0.5373289   -1.6675802 
H    -4.4287743   -0.0133156   -0.9417467 
O    -2.7262981    3.8892450   -0.4783344 
O    -1.0846797    2.1951971   -0.0641319 
H    -0.8146342    2.1519079    0.9072904 
