13
Energy =
C    -3.6391962    1.6776042    0.1934909 
C    -2.6549711    2.8253905    0.4242250 
C    -5.0128935    2.1683962   -0.3134943 
H    -5.8109450    1.8919683    0.4073860 
H    -5.2751773    1.7112681   -1.2926321 
H    -5.0388088    3.2744309   -0.4433038 
N    -3.1305028    0.6654477   -0.7475681 
H    -3.7746927    1.2026042    1.1932636 
H    -2.8573465    1.1363605   -1.6447604 
H    -2.2413733    0.2583623   -0.3676342 
O    -1.3520360    2.7505136   -0.0494811 
O    -3.0353872    3.9308296    1.1734407 
H    -3.0079855    3.6927636    2.1538507 
