13
Energy =
C    -3.6495352    1.6282672    0.3522479 
C    -2.4308611    2.4834204    0.0260837 
C    -4.9622845    2.3947674    0.1060218 
H    -4.9893538    3.3302181    0.7058853 
H    -5.8355945    1.7705349    0.3927455 
H    -5.0504983    2.6661794   -0.9713001 
N    -3.6345254    0.3750953   -0.4277641 
H    -3.5764426    1.3974609    1.4421392 
H    -3.5280223   -0.4453697    0.2143928 
H    -4.5132838    0.2224548   -0.9771087 
O    -2.2555609    3.0102201   -1.2482356 
O    -1.5186226    2.8089269    1.0231979 
H    -1.8963667    3.5588682    1.5823953 
