13
Energy =
C    -3.6457723    1.7320698    0.2715687 
C    -2.3919025    2.5135456   -0.1003596 
C    -4.9447709    2.5469286    0.0453188 
H    -4.7266120    3.5591487   -0.3670130 
H    -5.4905793    2.6768405    1.0039840 
H    -5.6295969    2.0503975   -0.6749420 
N    -3.7198879    0.4596182   -0.4628455 
H    -3.5294617    1.5102967    1.3596483 
H    -4.5822212   -0.0648970   -0.1841583 
H    -3.7794758    0.6552711   -1.4924664 
O    -1.3899219    2.7197935    0.8407523 
O    -2.2524300    3.0602744   -1.3709813 
H    -1.3502667    3.5150649   -1.4272014 
