13
Energy =
C    -3.7132028    1.6950031    0.2697775 
C    -2.4566446    2.5506045    0.3729773 
C    -4.9390279    2.4717388   -0.2765492 
H    -5.3675297    1.9948253   -1.1841909 
H    -4.6770005    3.5182471   -0.5562603 
H    -5.7399810    2.5197617    0.4919756 
N    -3.4741382    0.4972543   -0.5506194 
H    -3.9165702    1.3793641    1.3221565 
H    -4.3325144   -0.1037242   -0.5634612 
H    -3.2738617    0.7833792   -1.5409133 
O    -2.0991523    3.4150630   -0.6542584 
O    -1.6201025    2.4252984    1.4722251 
H    -1.0402724    1.6099800    1.3340708 
