13
Energy =
C    -3.6586115    1.6843627    0.2751267 
C    -2.4777575    2.6433544    0.1124533 
C    -5.0083062    2.3423235   -0.0861761 
H    -5.5300214    1.7898403   -0.8980692 
H    -4.8843689    3.3959633   -0.4244620 
H    -5.6812018    2.3494233    0.7975181 
N    -3.5194572    0.4516267   -0.5197240 
H    -3.6698937    1.4222711    1.3598612 
H    -3.3144061    0.7065701   -1.5175013 
H    -2.6888932   -0.0914338   -0.1850677 
O    -2.5180136    3.8931907    0.7142352 
O    -1.3300039    2.2641301   -0.5729193 
H    -0.7817835    1.6514928    0.0119360 
