24
Energy =
C    -0.1205792    1.2872066    1.1863605 
C     0.4453515    2.4525065    0.7729325 
C     1.3497115    2.4357075   -0.2322585 
C     0.2226804    0.1136325    0.5966602 
C     1.1396610    0.0953892   -0.4089684 
C     1.6963305    1.2656431   -0.8259379 
O     0.1158089    3.6782954    1.3613375 
H    -0.5774284    3.6165643    2.0980773 
H     2.4165137    1.2749799   -1.6413623 
H    -0.2425342   -0.8094305    0.9325718 
H    -0.8501213    1.2950276    1.9874811 
H     1.7902866    3.3713394   -0.5606974 
C     1.5041965   -1.2083314   -1.0841954 
C     0.4941982   -1.5787103   -2.1960486 
H     1.5385631   -2.0179601   -0.3221834 
H     2.5303154   -1.1468442   -1.5145787 
C     0.4598998   -0.5426328   -3.3089776 
O     1.6145934   -0.2337192   -4.0240607 
O    -0.7224364    0.1285920   -3.5991748 
H    -0.5552646    0.7727921   -4.3606407 
N     0.8061615   -2.9190855   -2.7227544 
H    -0.5373063   -1.5899214   -1.7732766 
H     1.7781602   -2.9302989   -3.1174437 
H     0.7683646   -3.6258680   -1.9511511 
