24
Energy =
C    -0.1210304    2.1343670   -1.8870299 
C    -0.6402095    2.5993500   -0.7283521 
C    -0.3141107    1.9943432    0.4446300 
C     0.7205913    1.0699926   -1.8853075 
C     1.0498619    0.4585951   -0.7138594 
C     0.5277701    0.9293435    0.4529349 
O    -1.5032239    3.6988701   -0.7716766 
H    -1.8582856    3.9876900    0.1333665 
H     0.7787688    0.4580630    1.4000434 
H     1.1286307    0.7117028   -2.8275918 
H    -0.3886648    2.6258506   -2.8164868 
H    -0.7266912    2.3623279    1.3775221 
C     1.9854221   -0.7331370   -0.7169912 
C     1.3004689   -2.0228383   -1.2573491 
H     2.3900966   -0.9310132    0.3011185 
H     2.8689254   -0.4725127   -1.3451544 
C     2.3635601   -3.0809759   -1.6231161 
O     3.3593546   -2.6804552   -2.5087501 
O     2.4340415   -4.3997047   -1.1611033 
H     1.6207196   -4.7300119   -0.6775155 
N     0.1946405   -2.4476982   -0.3663097 
H     0.8393067   -1.7797354   -2.2381669 
H     0.2524209   -3.4279586   -0.0426485 
H     0.1277325   -1.8666862    0.5012336 
