24
Energy =
C     0.1281700    2.4662947   -1.5166845 
C    -0.2685239    2.6959569   -0.2363676 
C     0.0412196    1.8016148    0.7294457 
C     0.8324884    1.3465517   -1.8225709 
C     1.1477015    0.4465292   -0.8508513 
C     0.7465707    0.6820187    0.4295139 
O    -0.9935968    3.8399248    0.1123654 
H    -1.1979056    4.4549609   -0.6677192 
H     0.9781285   -0.0279084    1.2207185 
H     1.1329839    1.1681923   -2.8524432 
H    -0.1206093    3.1759914   -2.2986126 
H    -0.2867858    1.9917356    1.7457609 
C     1.9243067   -0.8107020   -1.1909783 
C     1.0207249   -2.0407890   -1.4700618 
H     2.6153113   -1.0512609   -0.3507536 
H     2.5784031   -0.6307042   -2.0725036 
C     0.0923262   -2.3662195   -0.3035807 
O     0.6143617   -3.0668111    0.7768515 
O    -1.2228134   -1.9086237   -0.2202425 
H    -1.4943543   -1.4145946   -1.0558042 
N     0.3110278   -1.9107863   -2.7544253 
H     1.6833823   -2.9331580   -1.5416637 
H    -0.1742916   -0.9887605   -2.8216658 
H     1.0048507   -1.9498190   -3.5383533 
