24
Energy =
C     0.7060461    2.0679193    0.7561419 
C     0.4982045    2.9362937   -0.2605099 
C     0.7794148    2.5698798   -1.5319931 
C     1.1912272    0.8255568    0.5035619 
C     1.4799507    0.4502609   -0.7735923 
C     1.2646706    1.3291389   -1.7924292 
O    -0.0000442    4.2086217    0.0013819 
H    -1.0138102    4.2079054   -0.0200736 
H     1.4812940    1.0452358   -2.8192236 
H     1.3417433    0.1318678    1.3274955 
H     0.4810701    2.3771266    1.7710427 
H     0.6147247    3.2781055   -2.3371859 
C     2.0015672   -0.9408454   -1.0620537 
C     0.8553324   -1.9342164   -1.3311915 
H     2.6103411   -1.3090218   -0.2048462 
H     2.6912123   -0.9060738   -1.9356273 
C     1.3793296   -3.2594695   -1.8963182 
O     2.7019566   -3.6358429   -1.6908939 
O     0.5343932   -4.1313581   -2.5821458 
H    -0.4097548   -3.7779821   -2.6344823 
N     0.0892955   -2.1128599   -0.0797191 
H     0.2010241   -1.4990912   -2.1227434 
H    -0.8931205   -1.7780868   -0.2183545 
H     0.0311024   -3.1216573    0.2042357 
