24
Energy =
C     0.0402785    2.3676973   -0.5909622 
C    -0.9841041    1.9692031    0.1981955 
C    -1.0075332    0.7105361    0.6936414 
C     1.0520338    1.5101942   -0.8793323 
C     1.0405689    0.2442341   -0.3762353 
C    -0.0008520   -0.1535838    0.4067406 
O    -2.0215629    2.8483168    0.4891913 
H    -1.8271207    3.3662183    1.3393252 
H    -0.0337206   -1.1648747    0.8037476 
H     1.8652985    1.8413352   -1.5231646 
H     0.0390691    3.3748910   -0.9950134 
H    -1.8422878    0.4003490    1.3136497 
C     2.1490904   -0.7255253   -0.7232272 
C     1.8003061   -1.5843260   -1.9546452 
H     2.3554027   -1.3854990    0.1477964 
H     3.1004616   -0.1777305   -0.9219151 
C     1.6117688   -0.7242800   -3.2015310 
O     2.6168385    0.1299579   -3.6372771 
O     0.4028275   -0.7410098   -3.8841441 
H    -0.2644334   -0.1825337   -3.3735966 
N     2.8675748   -2.5798804   -2.1418121 
H     0.8346305   -2.1118344   -1.7764067 
H     2.8200184   -3.2887278   -1.3731504 
H     2.7017486   -3.1037924   -3.0346722 
