24
Energy =
C     0.2340756    2.4834554   -0.2193847 
C    -0.9268948    2.0518055    0.3246773 
C    -1.1201745    0.7317716    0.5483817 
C     1.2049891    1.5941371   -0.5484001 
C     1.0185711    0.2629742   -0.3273559 
C    -0.1532975   -0.1634090    0.2220120 
O    -1.9205588    2.9651073    0.6614415 
H    -2.5661500    3.0916567   -0.1106605 
H    -0.3208430   -1.2214639    0.4026283 
H     2.1280494    1.9562963   -0.9963628 
H     0.3782726    3.5447926   -0.3916637 
H    -2.0532325    0.4008488    0.9920783 
C     2.0884521   -0.7369161   -0.7148330 
C     1.7944050   -1.3997120   -2.0846212 
H     2.1571888   -1.5164869    0.0751778 
H     3.0874923   -0.2429223   -0.7547822 
C     1.7944149   -0.3930572   -3.2273091 
O     2.6814998    0.6765511   -3.2455792 
O     0.9481016   -0.5771044   -4.3111690 
H     1.3409683   -1.3026281   -4.8919199 
N     2.7619204   -2.4830188   -2.3595606 
H     0.7611972   -1.8181740   -2.0561268 
H     3.3774728   -2.6946568   -1.5390279 
H     2.2509123   -3.3669890   -2.5917064 
