24
Energy =
C    -0.5973640    0.8786818    1.1175408 
C    -0.4879613    2.1616663    0.7018712 
C     0.3756715    2.4806679   -0.2890873 
C     0.1668568   -0.0900260    0.5512766 
C     1.0516018    0.2259234   -0.4355240 
C     1.1448833    1.5185296   -0.8589394 
O    -1.2711409    3.1514245    1.2870834 
H    -0.8071776    3.5440231    2.0985522 
H     1.8257836    1.7888725   -1.6639538 
H     0.0618309   -1.1174257    0.8906177 
H    -1.3074807    0.6355907    1.9006592 
H     0.4398006    3.5093736   -0.6283929 
C     1.8900570   -0.8574189   -1.0810613 
C     1.1691222   -1.5089964   -2.2779405 
H     2.1353749   -1.6352767   -0.3253955 
H     2.8680978   -0.4462510   -1.4209689 
C     0.9737056   -0.5168435   -3.4167459 
O    -0.2371605   -0.4655773   -4.0915842 
O     2.0144919    0.3044650   -3.8326704 
H     2.5985073   -0.2286005   -4.4611575 
N     1.9506935   -2.6792983   -2.7153109 
H     0.1484538   -1.8335053   -1.9634327 
H     1.9147838   -3.4148514   -1.9702737 
H     1.4839528   -3.1072982   -3.5522424 
