24
Energy =
C     1.5520389    1.7495275    1.0931837 
C     0.7987739    2.6685238    0.4462314 
C     0.3670850    2.4252545   -0.8123625 
C     1.8703455    0.5780066    0.4854627 
C     1.4372117    0.3245788   -0.7812616 
C     0.6817224    1.2563439   -1.4272646 
O     0.4750464    3.8682041    1.0712586 
H    -0.3908025    3.7803383    1.5919483 
H     0.3296778    1.0741174   -2.4395488 
H     2.4738903   -0.1518131    1.0195620 
H     1.8998393    1.9634656    2.0982446 
H    -0.2273308    3.1762407   -1.3226784 
C     1.7784069   -0.9830848   -1.4612748 
C     0.5897891   -1.9745728   -1.4623576 
H     2.6601638   -1.4642535   -0.9781140 
H     2.0944864   -0.7675554   -2.5070000 
C     0.8771998   -3.1495779   -2.3806024 
O     1.8583161   -4.0748462   -2.0500346 
O     0.2452433   -3.2457093   -3.6135848 
H     0.6396677   -2.5666271   -4.2461008 
N     0.2916377   -2.4307174   -0.0915589 
H    -0.3191520   -1.4917490   -1.8910613 
H     1.1218198   -2.9331778    0.3085607 
H     0.0687303   -1.6199084    0.5306598 
