24
Energy =
C     0.0177428    2.4482596   -1.5551912 
C    -0.6730607    2.5231724   -0.3947183 
C    -0.4610584    1.6090372    0.5794289 
C     0.9304928    1.4625955   -1.7430727 
C     1.1574098    0.5418965   -0.7634114 
C     0.4529689    0.6215845    0.4007201 
O    -1.6084412    3.5357309   -0.2064875 
H    -1.1688441    4.3635016    0.1804520 
H     0.6071298   -0.1097063    1.1914734 
H     1.4729762    1.4143443   -2.6833477 
H    -0.1716210    3.1792942   -2.3330252 
H    -1.0333832    1.6694913    1.4993859 
C     2.1684071   -0.5682373   -0.9740126 
C     1.5330256   -1.9032271   -1.4378042 
H     2.7279708   -0.7399291   -0.0257444 
H     2.9337505   -0.2524277   -1.7169528 
C     0.6379780   -2.5167469   -0.3701038 
O     1.2088776   -3.1957844    0.6977171 
O    -0.7399954   -2.3469641   -0.3973941 
H    -1.1345410   -3.0722277   -0.9775026 
N     0.8415107   -1.7493658   -2.7306698 
H     2.3592200   -2.6365952   -1.5765664 
H     0.0226513   -1.1035679   -2.6234239 
H     1.4912387   -1.3170812   -3.4284035 
