24
Energy =
C    -0.9339723    0.8814414    0.7620102 
C    -0.8325091    2.1438478    0.2873407 
C     0.2072878    2.4750622   -0.5233877 
C    -0.0062697   -0.0532751    0.4345777 
C     1.0406386    0.2744775   -0.3719211 
C     1.1396345    1.5454643   -0.8518233 
O    -1.8086680    3.0782971    0.6478946 
H    -1.6757913    3.9976484    0.2404022 
H     1.9618939    1.8261106   -1.5063833 
H    -0.1089649   -1.0639049    0.8215218 
H    -1.7700423    0.6279549    1.4052771 
H     0.2934183    3.4832254   -0.9132818 
C     2.0627678   -0.7758109   -0.7533909 
C     1.5778736   -1.6596523   -1.9195101 
H     2.2779812   -1.4141466    0.1317416 
H     3.0366727   -0.3070589   -1.0257577 
C     1.4341450   -0.8703600   -3.2287805 
O     2.2857417    0.1957928   -3.5075554 
O     0.5023614   -1.2589314   -4.1942758 
H    -0.0416524   -2.0653713   -3.9149549 
N     2.5215217   -2.7871915   -2.0565901 
H     0.5593993   -2.0467156   -1.6753318 
H     2.3568948   -3.4724187   -1.2819775 
H     2.3371547   -3.3084897   -2.9522603 
