24
Energy =
C     1.8516381    2.1358769    0.1878076 
C     0.6209510    2.6850817    0.3027163 
C    -0.4208496    2.1612997   -0.3823088 
C     2.0439948    1.0539858   -0.6092311 
C     1.0000789    0.5207677   -1.3054304 
C    -0.2353588    1.0817436   -1.1839946 
O     0.4272519    3.7921385    1.1220236 
H     0.1605350    3.4992410    2.0560012 
H     3.0359716    0.6141566   -0.6757506 
H    -1.0817406    0.6533290   -1.7134572 
H    -1.4020280    2.6113530   -0.2774380 
H     2.6789887    2.5654041    0.7430254 
C     1.2052793   -0.7027093   -2.1798854 
C     0.5676791   -1.9748402   -1.5848090 
H     2.2919166   -0.8890708   -2.3346344 
H     0.7781646   -0.5094381   -3.1876415 
C     1.0195178   -2.2046424   -0.1460005 
O     0.2479953   -1.7842374    0.9333221 
O     2.2515624   -2.7992978    0.0948225 
H     2.3912112   -2.8601188    1.0953540 
N    -0.8995667   -1.8961927   -1.7387767 
H     0.9539182   -2.8578810   -2.1468394 
H    -1.1559324   -2.1607746   -2.7192424 
H    -1.3561612   -2.6074803   -1.1163454 
