24
Energy =
C     1.5106963    2.4551962   -1.2070377 
C     2.3913719    2.4456107   -0.1735300 
C     2.7282262    1.2713646    0.4033881 
C     0.9629125    1.2948840   -1.6482277 
C     1.2647228    0.1105315   -1.0426201 
C     2.1834080    0.1076924   -0.0339720 
O     2.9760207    3.6236892    0.3042852 
H     2.6680098    4.4646059   -0.1718530 
H     0.2972547    1.3277675   -2.5032056 
H     2.5102745   -0.8221502    0.4223017 
H     3.4503567    1.2749946    1.2129237 
H     1.2531284    3.3901728   -1.6917407 
C     0.6832901   -1.1996069   -1.5614219 
C    -0.8384958   -1.4594705   -1.2959017 
H     1.2673629   -2.0662910   -1.1775564 
H     0.8516327   -1.2246650   -2.6618474 
C    -1.2931506   -1.8261278    0.1291305 
O    -2.6164296   -2.2063961    0.3147393 
O    -0.4539740   -1.8671761    1.2415113 
H     0.4736814   -1.5672717    1.0317078 
N    -1.6734930   -0.3894249   -1.8646284 
H    -1.0862565   -2.3909177   -1.8559257 
H    -1.5874120    0.4843387   -1.2936635 
H    -1.4049262   -0.1939820   -2.8566939 
