24
Energy =
C     0.5398016    2.6034248   -1.1864088 
C     0.4905134    2.8276997    0.1467130 
C     0.8602263    1.8546089    1.0110719 
C     0.9676746    1.4058121   -1.6608084 
C     1.3490471    0.4238615   -0.7971719 
C     1.2888118    0.6539986    0.5443533 
O     0.0493005    4.0557405    0.6290387 
H     0.8286780    4.6924493    0.7538902 
H     1.0002334    1.2376519   -2.7345054 
H     1.5779313   -0.1195755    1.2509915 
H     0.8035262    2.0450170    2.0773830 
H     0.2297211    3.3878912   -1.8688071 
C     1.8075968   -0.9171825   -1.3261438 
C     0.6245420   -1.8068726   -1.7880748 
H     2.4122469   -1.4589098   -0.5637399 
H     2.4979743   -0.7426663   -2.1831332 
C     1.0961305   -3.0745381   -2.5059064 
O     2.4437785   -3.4219314   -2.5064347 
O     0.1929704   -3.9013666   -3.1732350 
H    -0.7597545   -3.5997353   -3.0228582 
N    -0.2489793   -2.1421916   -0.6498925 
H     0.0313394   -1.2449184   -2.5450244 
H     0.3161172   -2.5503495    0.1327066 
H    -0.7140465   -1.2754717   -0.2896499 
