24
Energy =
C     2.3308202    2.0282789    0.0239211 
C     1.1943069    2.7241720    0.2905044 
C     0.0240143    2.3272460   -0.2568579 
C     2.2918236    0.9429288   -0.7903410 
C     1.1156998    0.5468881   -1.3524697 
C    -0.0203585    1.2448876   -1.0759025 
O     1.1992776    3.8475534    1.1226726 
H     2.1090244    4.0767289    1.5080774 
H     3.2101288    0.3947301   -0.9859674 
H    -0.9757881    0.9248014   -1.4885036 
H    -0.8770831    2.8846591   -0.0211234 
H     3.2722828    2.3375396    0.4643497 
C     1.0711734   -0.6705953   -2.2554481 
C     0.4015997   -1.8860185   -1.5627456 
H     2.1037481   -0.9397052   -2.5697146 
H     0.5335243   -0.4256023   -3.2000395 
C    -1.1122819   -1.8039137   -1.6405614 
O    -1.7887690   -2.1860272   -2.7932452 
O    -1.8263251   -1.2029747   -0.6106253 
H    -2.8168890   -1.3188097   -0.7932815 
N     0.8987940   -3.1406894   -2.1547122 
H     0.6347015   -1.8882090   -0.4714192 
H     0.6848121   -3.1598939   -3.1814257 
H     1.9359004   -3.2122011   -2.0349379 
