24
Energy =
C     2.0670548    2.1762147    0.4468830 
C     0.8730874    2.2917442    1.0672193 
C    -0.1742762    1.5425519    0.6596502 
C     2.2171140    1.3112002   -0.5876368 
C     1.1719198    0.5373664   -1.0054460 
C    -0.0348874    0.6753201   -0.3755580 
O     0.7236858    3.1784926    2.1284309 
H     0.4295243    4.0902622    1.7959711 
H     3.1862259    1.2437406   -1.0762359 
H    -0.9054218    0.1050519   -0.6676149 
H    -1.1259595    1.6427164    1.1714339 
H     2.9015862    2.7811538    0.7862556 
C     1.3890208   -0.3922260   -2.1978804 
C     0.5347975   -1.6944620   -2.2266276 
H     2.4586806   -0.6979782   -2.1811962 
H     1.2522256    0.1758306   -3.1442735 
C    -0.9062540   -1.4607806   -2.6674586 
O    -1.9416056   -2.0546677   -1.9574725 
O    -1.2196665   -0.6440210   -3.7500492 
H    -1.0912047    0.3229321   -3.4975799 
N     1.1577776   -2.7083399   -3.1063982 
H     0.4721462   -2.0954735   -1.1862721 
H     2.0787285   -2.4186263   -3.5098550 
H     1.3079994   -3.6007694   -2.5786537 
