24
Energy =
C     0.7710072    2.4890692   -0.0018030 
C    -0.2081507    2.8374850   -0.8790799 
C    -0.4809866    2.0319031   -1.9309504 
C     1.4733052    1.3425973   -0.1841206 
C     1.2078361    0.5371898   -1.2498749 
C     0.2181287    0.8840712   -2.1176174 
O    -0.9488242    4.0134050   -0.7222934 
H    -0.6996863    4.5520139    0.1003451 
H     2.2393060    1.0654948    0.5358553 
H    -0.0289561    0.2390578   -2.9566493 
H    -1.2724290    2.3132812   -2.6173569 
H     0.9898312    3.1219858    0.8515622 
C     1.9658343   -0.7628966   -1.4347927 
C     1.3508792   -1.9831850   -0.6756999 
H     3.0164493   -0.6214460   -1.0960043 
H     2.0509562   -0.9779665   -2.5232532 
C     0.1431653   -1.6519615    0.1962658 
O     0.3201970   -1.3701486    1.5471455 
O    -1.1284018   -1.5367639   -0.3550982 
H    -1.7760256   -1.2979352    0.3836361 
N     1.0478285   -3.0726165   -1.6195231 
H     2.1120990   -2.3603486    0.0451398 
H     0.3187722   -2.7493970   -2.3003862 
H     1.9074075   -3.3290384   -2.1591573 
