24
Energy =
C    -1.2501907    1.7835175   -1.3325957 
C    -0.7617910    2.5678307   -0.3344056 
C     0.4988940    2.3707711    0.1145409 
C    -0.4755811    0.8119009   -1.8783015 
C     0.7971121    0.6191510   -1.4334778 
C     1.2782893    1.4026384   -0.4286841 
O    -1.5318518    3.5821217    0.2438803 
H    -2.4750967    3.6478281   -0.1233197 
H    -0.8838061    0.1871128   -2.6685579 
H     2.2836540    1.2482085   -0.0437972 
H     0.8744654    2.9934551    0.9194928 
H    -2.2624608    1.9300348   -1.6941598 
C     1.6597673   -0.4805116   -2.0212921 
C     1.7287264   -1.7832672   -1.1709984 
H     2.6911297   -0.0860097   -2.1613683 
H     1.3196515   -0.7184962   -3.0547219 
C     0.9768190   -1.7366853    0.1684065 
O     1.7027120   -1.5437699    1.3372215 
O    -0.4141405   -1.8113318    0.2536210 
H    -0.8424365   -1.8974426   -0.6528604 
N     1.3548710   -2.9343736   -2.0153204 
H     2.7959569   -1.9217609   -0.8760994 
H     1.4801047   -3.8222809   -1.4704333 
H     0.3471957   -2.8850605   -2.2919555 
