24
Energy =
C     0.0178657    2.3583333   -1.3778217 
C     0.6667946    2.8494211   -0.2972511 
C     1.5706528    2.0830050    0.3556631 
C     0.2808510    1.1013635   -1.8175638 
C     1.2007446    0.3281091   -1.1754616 
C     1.8397223    0.8259548   -0.0792797 
O     0.3978727    4.1402175    0.1472011 
H     1.0242603    4.8075436   -0.2887227 
H    -0.2568811    0.7118392   -2.6776978 
H     2.5616304    0.2177349    0.4605893 
H     2.0694553    2.4815418    1.2322463 
H    -0.7191966    2.9750857   -1.8811094 
C     1.4873208   -1.0816093   -1.6556119 
C     0.4702056   -2.1091948   -1.1150601 
H     2.5134671   -1.3874020   -1.3494885 
H     1.4809955   -1.1052903   -2.7670715 
C     0.4638855   -2.1530756    0.4113188 
O    -0.7275995   -2.1321406    1.1305911 
O     1.6628449   -2.3017326    1.1015475 
H     1.4666127   -2.3438376    2.0937507 
N    -0.8556776   -1.8243269   -1.6983743 
H     0.8040615   -3.1259680   -1.4246383 
H    -0.8544005   -2.1083784   -2.7055966 
H    -1.5842469   -2.4154806   -1.2285615 
