24
Energy =
C    -0.4276451    2.2212893   -0.3311386 
C     0.4145534    2.5062189    0.6884895 
C     1.6012588    1.8635717    0.7859921 
C    -0.0782417    1.3026075   -1.2674571 
C     1.1221137    0.6630950   -1.1845886 
C     1.9565526    0.9415809   -0.1448135 
O     0.0556884    3.4530178    1.6431280 
H     0.3804903    4.3753651    1.3749007 
H    -0.7705110    1.0718222   -2.0751454 
H     2.9094144    0.4270191   -0.0489711 
H     2.2580110    2.0888432    1.6192290 
H    -1.3857963    2.7274312   -0.3847455 
C     1.5047081   -0.3804997   -2.2111054 
C     0.9834379   -1.7803113   -1.8259309 
H     2.6137298   -0.4259222   -2.3089780 
H     1.1315972   -0.0851300   -3.2160218 
C    -0.5451274   -1.8604457   -1.7889773 
O    -1.1724088   -2.2248266   -0.6052817 
O    -1.3340798   -1.5694144   -2.9035008 
H    -0.7786428   -1.3649561   -3.7192930 
N     1.5891200   -2.7723835   -2.7335960 
H     1.3155250   -2.0012823   -0.7825211 
H     1.2920322   -3.7363922   -2.4444196 
H     1.2377081   -2.6336367   -3.7107533 
