24
Energy =
C    -0.0889987    2.4716865   -1.3654517 
C     0.6054048    2.9696948   -0.3081401 
C     1.5709313    2.2196496    0.2701219 
C     0.1876951    1.2307322   -1.8402415 
C     1.1635582    0.4768735   -1.2620707 
C     1.8497685    0.9767991   -0.1982936 
O     0.3472837    4.2453821    0.2042026 
H    -0.3994483    4.7421268   -0.2691750 
H    -0.3826485    0.8420454   -2.6813975 
H     2.6236974    0.3861729    0.2854747 
H     2.1152793    2.6257515    1.1161466 
H    -0.8694520    3.0637844   -1.8298041 
C     1.4573101   -0.9196393   -1.7666474 
C     0.6729715   -1.9901089   -0.9701700 
H     2.5495385   -1.1141457   -1.6823383 
H     1.2161823   -1.0012749   -2.8514446 
C    -0.8429735   -1.8735406   -1.1662464 
O    -1.3562703   -1.5754242   -2.4255424 
O    -1.7367221   -2.0885483   -0.1163510 
H    -1.2677262   -2.4171590    0.7146032 
N     1.1502640   -3.3319881   -1.3409869 
H     0.8745382   -1.8342106    0.1138519 
H     1.0206487   -3.4853340   -2.3707533 
H     2.1729588   -3.4196002   -1.1332059 
