24
Energy =
C    -0.0553955    2.4777885   -1.7530242 
C     0.0830646    3.0098283   -0.5182662 
C     0.7269011    2.3173083    0.4476019 
C     0.4508933    1.2483837   -2.0264055 
C     1.0872082    0.5310374   -1.0542473 
C     1.2370293    1.0876970    0.1812938 
O    -0.4364229    4.2701564   -0.2423221 
H     0.2559869    4.9896440   -0.4178122 
H     0.3396207    0.8430519   -3.0291239 
H     1.7754959    0.5633982    0.9627684 
H     0.8308000    2.7568482    1.4338731 
H    -0.5745125    3.0441361   -2.5195114 
C     1.6691707   -0.8402528   -1.3714287 
C     0.7643677   -2.0690621   -1.0422399 
H     2.6417305   -0.9547709   -0.8424283 
H     1.9214465   -0.8825718   -2.4541312 
C     0.7809775   -2.5058450    0.4222847 
O     0.4838122   -3.8249373    0.7428786 
O     1.0803056   -1.6255781    1.4532956 
H     1.0046718   -2.1212190    2.3335247 
N    -0.6028147   -1.9573073   -1.6069992 
H     1.2425665   -2.9384700   -1.5485289 
H    -1.3295508   -2.0914454   -0.8623882 
H    -0.8012090   -1.0302894   -2.0377584 
