24
Energy =
C     1.8465473    2.0837612    0.2620112 
C     1.3567248    2.9060665   -0.7037606 
C     0.8828655    2.3770695   -1.8549383 
C     1.8633749    0.7403735    0.0705705 
C     1.3956532    0.2074882   -1.0920076 
C     0.8977690    1.0347112   -2.0519742 
O     1.3282111    4.2945906   -0.5389125 
H     1.6871933    4.6166909    0.3530409 
H     2.2517708    0.0943706    0.8538866 
H     0.5020934    0.6270906   -2.9798100 
H     0.4867532    3.0410917   -2.6160254 
H     2.2231633    2.4997317    1.1896532 
C     1.3922816   -1.2919805   -1.2974742 
C     0.1382714   -1.9525128   -0.6958807 
H     2.2978136   -1.7368216   -0.8282598 
H     1.4567600   -1.5364996   -2.3822946 
C    -1.1398121   -1.4964928   -1.3900754 
O    -2.2124777   -1.0332115   -0.6379619 
O    -1.2594618   -1.5691928   -2.7736972 
H    -2.1814000   -1.2463595   -3.0386504 
N     0.3119685   -3.4144227   -0.7533367 
H     0.0478447   -1.6421710    0.3714989 
H    -0.5029089   -3.8738044   -0.2794085 
H     0.2749973   -3.7232271   -1.7557269 
