24
Energy =
C     0.6517718    1.9089538    1.1062508 
C    -0.6982767    1.7653722    1.1802915 
C    -1.3615553    1.1585259    0.1704080 
C     1.3286666    1.4530754    0.0216962 
C     0.6598833    0.8528286   -1.0014049 
C    -0.6892788    0.7002791   -0.9156480 
O    -1.4272162    2.2307497    2.2803758 
H    -0.8568833    2.6407618    3.0115693 
H     2.4095355    1.5613075   -0.0137675 
H    -1.2306626    0.1900061   -1.7079082 
H    -2.4361233    1.0353001    0.2483828 
H     1.1925304    2.3831409    1.9171745 
C     1.4126872    0.3205324   -2.2050543 
C     1.5440726   -1.2187563   -2.1877028 
H     2.4228698    0.7821177   -2.2629740 
H     0.8853754    0.6379095   -3.1320973 
C     2.0882996   -1.7376389   -0.8465300 
O     1.2870338   -2.4958895   -0.0009521 
O     3.4021354   -1.4738114   -0.4558442 
H     3.8894789   -0.9131068   -1.1357130 
N     0.2388229   -1.8010543   -2.5592375 
H     2.3043805   -1.5208549   -2.9455467 
H     0.1099375   -1.7383059   -3.5965947 
H     0.2211709   -2.8237435   -2.3222478 
