24
Energy =
C    -0.3913576    2.1687162   -0.2928913 
C    -0.1752264    1.9648686    1.0267494 
C     0.7037848    1.0189306    1.4313092 
C     0.2689117    1.4226646   -1.2142935 
C     1.1581703    0.4698213   -0.8147871 
C     1.3668983    0.2674210    0.5156549 
O    -0.8527611    2.7327674    1.9679852 
H    -1.7261586    2.2889439    2.2311154 
H     0.0761901    1.5844528   -2.2735427 
H     2.0635628   -0.4952380    0.8548207 
H     0.8704139    0.8700593    2.4929512 
H    -1.0975473    2.9314435   -0.6037610 
C     1.8745786   -0.3860621   -1.8370699 
C     1.1065146   -1.6973622   -2.1261339 
H     2.8960092   -0.6257973   -1.4673045 
H     2.0142913    0.1807309   -2.7860208 
C    -0.2847832   -1.4352931   -2.6836665 
O    -0.4665379   -0.5608410   -3.7526589 
O    -1.3961954   -2.0358922   -2.1074332 
H    -2.2164814   -1.7668527   -2.6339253 
N     1.8927179   -2.5424515   -3.0404632 
H     0.9535294   -2.2518091   -1.1716861 
H     2.0401156   -2.0380945   -3.9483853 
H     2.8339584   -2.7389664   -2.6269414 
