24
Energy =
C     0.4624228    2.2919399    0.1931027 
C    -0.4945665    1.8863259    1.0589111 
C    -0.7997592    0.5726563    1.1630579 
C     1.1296751    1.3820188   -0.5618464 
C     0.8385749    0.0554705   -0.4515344 
C    -0.1387225   -0.3433969    0.4100907 
O    -1.1707949    2.8207579    1.8370108 
H    -0.7069416    2.9478091    2.7293374 
H     1.8869874    1.7272425   -1.2601486 
H    -0.4005133   -1.3948769    0.4983274 
H    -1.5828060    0.2653181    1.8476321 
H     0.6828500    3.3505307    0.1032419 
C     1.5616735   -0.9640101   -1.3049469 
C     0.8070372   -1.2602434   -2.6143548 
H     1.6720912   -1.9125095   -0.7327617 
H     2.5978067   -0.6285553   -1.5283374 
C     0.7704107   -0.0574627   -3.5487899 
O    -0.3917132    0.6889481   -3.6673889 
O     1.8956716    0.3257815   -4.2688706 
H     2.5400128    0.8026917   -3.6585984 
N     1.4204102   -2.4418696   -3.2462257 
H    -0.2586522   -1.4905586   -2.3729684 
H     0.8519726   -2.7087489   -4.0866440 
H     2.3668261   -2.1866774   -3.6201110 
