24
Energy =
C     0.1960055    2.4375078   -1.0758511 
C     0.8099823    2.8323324    0.0623804 
C     1.6672058    1.9853571    0.6921116 
C     0.4297940    1.2041878   -1.5915652 
C     1.2862323    0.3509202   -0.9647111 
C     1.9050157    0.7506863    0.1812992 
O     0.5437381    4.1112928    0.5613279 
H     1.0375614    4.3319035    1.4193833 
H    -0.0731640    0.9062802   -2.5084607 
H     2.5940632    0.0873436    0.6975833 
H     2.1645585    2.2937528    1.6054471 
H    -0.4855119    3.1229851   -1.5681332 
C     1.5404782   -1.0266791   -1.5398700 
C     0.3419504   -1.9835531   -1.3228023 
H     2.4591580   -1.4839274   -1.1072098 
H     1.7413425   -0.9184264   -2.6306724 
C     0.4963264   -3.2180935   -2.1961427 
O     1.4232604   -4.2033682   -1.8736325 
O    -0.2376387   -3.3314708   -3.3689287 
H    -0.0003197   -4.2062950   -3.8200508 
N     0.1551486   -2.3098685    0.1137913 
H    -0.5895001   -1.4971466   -1.6942776 
H     0.2814858   -3.3364718    0.2918788 
H     0.8525107   -1.8309178    0.7278929 
