24
Energy =
C     0.3297532    2.0207599    0.7091864 
C    -0.2865997    2.6967768   -0.2872775 
C    -0.1529556    2.2843162   -1.5690903 
C     1.0917753    0.9337169    0.4256668 
C     1.2408540    0.5195761   -0.8638032 
C     0.6069429    1.1977330   -1.8605853 
O    -1.0677000    3.8093439    0.0080374 
H    -0.5118024    4.6566693   -0.0272798 
H     1.5709965    0.3895435    1.2366699 
H     0.7013819    0.8740235   -2.8943396 
H    -0.6650350    2.8277225   -2.3558820 
H     0.2009669    2.3522758    1.7342700 
C     2.0709771   -0.7035940   -1.1845412 
C     1.2141322   -1.9824331   -1.2731057 
H     2.8610347   -0.8590552   -0.4145318 
H     2.6091006   -0.5407808   -2.1454772 
C     2.0190782   -3.1387340   -1.8519690 
O     1.3598494   -4.1899858   -2.4785187 
O     3.4063077   -3.1733130   -1.7492098 
H     3.7429549   -4.0333657   -2.1629156 
N     0.6890256   -2.3055306    0.0670792 
H     0.3724173   -1.8176099   -1.9863421 
H    -0.1072614   -1.6608366    0.2823772 
H     0.2681850   -3.2672153    0.0517784 
