24
Energy =
C    -0.6552938    2.0495360   -1.2795259 
C    -0.1716838    2.7262395   -0.2130396 
C     0.9451735    2.2760312    0.4186072 
C    -0.0335118    0.9271492   -1.7222215 
C     1.0883364    0.4759919   -1.0971749 
C     1.5713528    1.1547090   -0.0199585 
O    -0.8419830    3.8768675    0.2137348 
H    -0.4154826    4.3303133    1.0145130 
H    -0.4397001    0.3950476   -2.5789690 
H     2.4584870    0.7996591    0.4998815 
H     1.3383845    2.8098476    1.2771141 
H    -1.5480673    2.4187828   -1.7726731 
C     1.7711964   -0.7855006   -1.5771202 
C     1.1021505   -2.0575393   -1.0155691 
H     2.8468334   -0.7861752   -1.2871103 
H     1.7584041   -0.8075998   -2.6905010 
C     1.6060691   -3.3088541   -1.7230704 
O     2.8036746   -3.3086496   -2.4319936 
O     0.8627084   -4.4795722   -1.6532240 
H     1.3526347   -5.2053516   -2.1613356 
N     1.3393588   -2.1265548    0.4389295 
H     0.0069044   -2.0259865   -1.2252754 
H     0.7141337   -1.4369985    0.9177153 
H     1.0372203   -3.0683695    0.7914804 
