24
Energy =
C     2.2258398    1.8994758    0.4327358 
C     1.0953611    2.6372701    0.5142901 
C     0.0372399    2.3437549   -0.2750087 
C     2.2995822    0.8581523   -0.4349144 
C     1.2396235    0.5567594   -1.2370986 
C     0.1057235    1.3070129   -1.1499831 
O     1.0221591    3.7020046    1.4062443 
H     0.6417747    3.3983135    2.2963568 
H     3.2130666    0.2699689   -0.4797989 
H    -0.7611254    1.0619465   -1.7622000 
H    -0.8624456    2.9448528   -0.1926061 
H     3.0694916    2.1481556    1.0682975 
C     1.3149414   -0.6147429   -2.1967576 
C     0.4844178   -1.8225641   -1.7122786 
H     2.3743235   -0.9357814   -2.3189540 
H     0.9810119   -0.3048004   -3.2126319 
C    -0.9941844   -1.6410299   -2.0095772 
O    -1.5175901   -1.9674457   -3.2536757 
O    -1.8205066   -1.0441518   -1.0674011 
H    -2.7777491   -1.0886944   -1.4003075 
N     1.0319198   -3.0456877   -2.3271262 
H     0.5575345   -1.9067091   -0.6010966 
H     0.4900660   -3.8719939   -1.9765907 
H     0.8613165   -3.0169432   -3.3621648 
