24
Energy =
C     0.2861371    2.0608584    0.6525768 
C    -0.2837101    2.7436728   -0.3667211 
C    -0.0908585    2.3398676   -1.6437754 
C     1.0480920    0.9665900    0.3981660 
C     1.2482885    0.5550137   -0.8852023 
C     0.6688932    1.2457862   -1.9062032 
O    -1.0635659    3.8647057   -0.1013645 
H    -2.0374790    3.6054818    0.0102310 
H     1.4912623    0.4184589    1.2267904 
H     0.8126770    0.9302885   -2.9368112 
H    -0.5473899    2.9022090   -2.4511706 
H     0.1276647    2.3980040    1.6716661 
C     2.0816826   -0.6738130   -1.1746188 
C     1.2187441   -1.9442697   -1.3100438 
H     2.8345231   -0.8401728   -0.3702731 
H     2.6649477   -0.5105244   -2.1088008 
C     2.0407866   -3.1061655   -1.8524743 
O     1.4042749   -4.1466239   -2.5192757 
O     3.4197866   -3.1574745   -1.6748360 
H     3.7690505   -4.0182949   -2.0762910 
N     0.6245437   -2.2667120    0.0011190 
H     0.4152011   -1.7688722   -2.0634558 
H    -0.1776728   -1.6178805    0.1772796 
H     0.2007010   -3.2264692   -0.0369530 
