24
Energy =
C     0.3992025    2.2284386    0.5373946 
C    -0.8464931    2.4842398    0.0760241 
C    -1.2939941    1.8684228   -1.0420575 
C     1.2075035    1.3624048   -0.1255087 
C     0.7677554    0.7438106   -1.2577999 
C    -0.4924433    1.0011888   -1.7099410 
O    -1.6702328    3.3751006    0.7562336 
H    -1.5559045    4.3159427    0.3962174 
H     2.2047432    1.1632250    0.2598404 
H    -0.8686826    0.5090892   -2.6031222 
H    -2.3000609    2.0700443   -1.3929226 
H     0.7406469    2.7169067    1.4441412 
C     1.6627186   -0.2334009   -1.9948200 
C     1.5586082   -1.6775686   -1.4599685 
H     2.7204034    0.1084579   -1.9305962 
H     1.4051110   -0.2365668   -3.0770507 
C     2.0007676   -1.7924155   -0.0066239 
O     1.1522774   -2.3060039    0.9682750 
O     3.2837484   -1.3990764    0.3534569 
H     3.4103282   -1.5692165    1.3436351 
N     0.2026096   -2.2021733   -1.7114770 
H     2.2916272   -2.2958328   -2.0269700 
H     0.1872991   -3.2246544   -1.4796352 
H    -0.4704783   -1.7620929   -1.0382902 
