24
Energy =
C     0.9392739    2.7015347   -0.8622408 
C     1.2843168    2.6596874    0.4447945 
C     1.6642821    1.4900803    1.0072238 
C     0.9608743    1.5688911   -1.6100939 
C     1.3288917    0.3818084   -1.0485696 
C     1.6917687    0.3545925    0.2654988 
O     1.2594410    3.8228955    1.2073103 
H     0.3540111    3.9390123    1.6498501 
H     0.6837744    1.6228454   -2.6591911 
H     1.9963267   -0.5777519    0.7330156 
H     1.9457926    1.4714080    2.0542450 
H     0.6483698    3.6488215   -1.3042883 
C     1.3514199   -0.8897099   -1.8790250 
C     0.1030091   -1.7938116   -1.6872929 
H     2.2644010   -1.4734466   -1.6231915 
H     1.4514243   -0.6409992   -2.9586730 
C    -0.0367200   -2.3077979   -0.2604291 
O     0.5116421   -3.5404754    0.0804804 
O    -0.6291324   -1.5366795    0.7360929 
H    -0.6566145   -2.0687399    1.5952638 
N    -1.1378168   -1.1394922   -2.1573743 
H     0.2790347   -2.7122668   -2.2953475 
H    -0.9755933   -0.1722461   -2.5159960 
H    -1.5578135   -1.6898681   -2.9424425 
