24
Energy =
C     0.0638340    2.3865293   -1.8542935 
C     0.1849774    2.9811918   -0.6453649 
C     0.8065523    2.3349268    0.3680093 
C     0.5769366    1.1458694   -2.0580012 
C     1.2182032    0.4954521   -1.0467571 
C     1.3215059    1.0940692    0.1721738 
O    -0.3396401    4.2531904   -0.4418550 
H     0.3525762    4.9646589   -0.6483648 
H     0.4609745    0.6680480   -3.0300639 
H     1.8121371    0.5840260    0.9975066 
H     0.8805795    2.8172790    1.3368712 
H    -0.4553436    2.9083951   -2.6517572 
C     1.7737540   -0.8956401   -1.2615319 
C     0.7424758   -1.9904951   -0.8993685 
H     2.6899983   -1.0261315   -0.6445947 
H     2.0938338   -1.0271731   -2.3207193 
C    -0.4903488   -1.9429961   -1.7934058 
O    -1.7581200   -2.1037377   -1.2460215 
O    -0.3666546   -1.7247013   -3.1646297 
H    -1.2835063   -1.8090614   -3.5864277 
N     1.3881619   -3.3142366   -0.9531029 
H     0.3675000   -1.8173045    0.1358048 
H     1.7429645   -3.4956029   -1.9234346 
H     2.2058840   -3.3453360   -0.3001138 
