24
Energy =
C     1.3928029    2.3898649    0.1528891 
C     0.1371075    2.8485381   -0.0525454 
C    -0.6951460    2.1900716   -0.8912076 
C     1.8195754    1.2655356   -0.4766166 
C     0.9884234    0.5961010   -1.3247785 
C    -0.2742771    1.0658052   -1.5256973 
O    -0.2977051    4.0002021    0.5951747 
H    -0.7461772    3.7651494    1.4738511 
H     2.8272706    0.9020886   -0.2889910 
H    -0.9548555    0.5332138   -2.1843341 
H    -1.6988946    2.5707719   -1.0462419 
H     2.0516547    2.9268047    0.8271438 
C     1.4555525   -0.6684270   -2.0214154 
C     0.9025112   -1.9501842   -1.3625381 
H     2.5680974   -0.7133735   -2.0289007 
H     1.1433223   -0.6378951   -3.0875631 
C     1.3036637   -2.0564931    0.1110309 
O     2.5910990   -1.7059205    0.5075267 
O     0.4443942   -2.6164232    1.0506658 
H     0.9033076   -2.6187701    1.9521269 
N    -0.5572861   -2.0048784   -1.5887747 
H     1.3871141   -2.8296856   -1.8463328 
H    -0.7397787   -2.3515424   -2.5594308 
H    -0.9875853   -2.7142498   -0.9441654 
