24
Energy =
C     2.9660140    0.4962061    0.3116118 
C     2.2970686    1.2360276    1.2348181 
C     1.0436364    1.6656741    0.9668526 
C     2.3800479    0.1932163   -0.8744248 
C     1.1224143    0.6350134   -1.1526411 
C     0.4538231    1.3702387   -0.2214503 
O     2.8698819    1.5677239    2.4661271 
H     3.8054526    1.2002604    2.6050717 
H     2.9240266   -0.4084648   -1.5997373 
H    -0.5697415    1.7019987   -0.4136504 
H     0.5211442    2.2405281    1.7260306 
H     3.9692312    0.1422705    0.5224162 
C     0.4701737    0.2768829   -2.4734097 
C    -0.2726158   -1.0817493   -2.4152789 
H     1.2572460    0.2345714   -3.2610336 
H    -0.2297097    1.0784807   -2.8053958 
C    -1.7144330   -0.9378713   -1.9218814 
O    -2.7245836   -1.7318512   -2.4619683 
O    -2.0108957   -0.0503654   -0.8846445 
H    -2.4048772    0.8165071   -1.2367791 
N    -0.1912500   -1.7031315   -3.7514279 
H     0.2269540   -1.7525411   -1.6784168 
H    -0.5632699   -2.6824982   -3.6958409 
H    -0.8286193   -1.1957098   -4.4132905 
