24
Energy =
C     1.0445233    1.2483908    1.3888425 
C     0.4701063    2.3716298    0.9002204 
C     0.3338213    2.5362541   -0.4358406 
C     1.4789405    0.2810726    0.5418607 
C     1.3480355    0.4410855   -0.8045888 
C     0.7671392    1.5740405   -1.2890465 
O     0.0240583    3.3598107    1.7725416 
H    -0.9425938    3.1954355    2.0328600 
H     1.9284243   -0.6211006    0.9481921 
H     0.6371071    1.7128103   -2.3598444 
H    -0.1277861    3.4417487   -0.8142206 
H     1.1514025    1.1302219    2.4617355 
C     1.7976193   -0.6508158   -1.7503275 
C     0.6913124   -1.7121928   -1.9567952 
H     2.7114245   -1.1383133   -1.3417762 
H     2.0977101   -0.2105912   -2.7275158 
C    -0.5842161   -1.1260440   -2.5690621 
O    -1.7345298   -1.0457510   -1.7924577 
O    -0.6160659   -0.6082278   -3.8650938 
H     0.2614711   -0.7510872   -4.3378374 
N     1.2205014   -2.8348347   -2.7523327 
H     0.3786599   -2.1036212   -0.9593495 
H     1.7206206   -2.4880141   -3.6048293 
H     1.9228807   -3.3645004   -2.1832104 
