24
Energy =
C     0.9676250    1.6382399    1.1659575 
C     0.6178291    2.6839062    0.3820596 
C     0.6116460    2.5486490   -0.9641927 
C     1.3246899    0.4551442    0.6048206 
C     1.3377356    0.3161922   -0.7505056 
C     0.9698695    1.3693774   -1.5328292 
O     0.2546488    3.8954604    0.9615330 
H     1.0645376    4.4933081    1.0830469 
H     1.5944335   -0.3801387    1.2457457 
H     0.9488637    1.2716306   -2.6162098 
H     0.3095282    3.3889213   -1.5802182 
H     0.9509626    1.7545838    2.2444195 
C     1.7131211   -1.0088759   -1.3785715 
C     0.5053641   -1.9716562   -1.4526618 
H     2.5294484   -1.4783040   -0.7867649 
H     2.1249838   -0.8488624   -2.4014281 
C    -0.6162174   -1.4137716   -2.3175397 
O    -0.3903995   -1.1078555   -3.6575936 
O    -1.8634592   -1.1545365   -1.7611928 
H    -2.4755465   -0.7957486   -2.4818406 
N     0.9518784   -3.2898046   -1.9369885 
H     0.0665600   -2.0961876   -0.4356177 
H     1.3712485   -3.1962666   -2.8940425 
H     1.6871758   -3.6773092   -1.3004993 
