24
Energy =
C     0.7907797    2.6116992   -0.9929308 
C     0.9423049    2.7320502    0.3532543 
C     1.2955671    1.6512276    1.0852982 
C     0.9957425    1.4143203   -1.5983484 
C     1.3624472    0.3278352   -0.8633071 
C     1.5031862    0.4522073    0.4850573 
O     0.7392252    3.9509311    1.0081413 
H     0.4725723    4.7114298    0.3923087 
H     0.8622645    1.3318457   -2.6745854 
H     1.7713405   -0.4094442    1.0908471 
H     1.4047253    1.7573082    2.1591552 
H     0.5021600    3.4717417   -1.5877621 
C     1.5695471   -1.0130811   -1.5347546 
C     0.2680627   -1.8430454   -1.5527200 
H     2.3714907   -1.5830288   -1.0153416 
H     1.9376951   -0.8495798   -2.5739873 
C     0.3792018   -3.0166250   -2.5379994 
O     0.6956508   -2.7301340   -3.8600350 
O     0.1604818   -4.3526923   -2.1937401 
H    -0.1254754   -4.4835519   -1.2390960 
N    -0.0709653   -2.2217635   -0.1667307 
H    -0.5492330   -1.2055469   -1.9641421 
H    -1.0275606   -2.6492048   -0.1332611 
H     0.6237203   -2.9090670    0.2118449 
