24
Energy =
C     1.9561391    2.1565612    0.3011908 
C     1.4014404    2.9642431   -0.6319104 
C     0.8486589    2.4191549   -1.7484165 
C     1.9622159    0.8123403    0.1291828 
C     1.3972135    0.2561531   -0.9804200 
C     0.8499018    1.0745923   -1.9237981 
O     1.4174408    4.3482437   -0.4243708 
H     0.9752985    4.8829375   -1.1646562 
H     2.4244748    0.1879791    0.8892361 
H     0.4149468    0.6623606   -2.8300311 
H     0.4071137    3.0571403   -2.5072155 
H     2.3993930    2.5949575    1.1890874 
C     1.4054265   -1.2521047   -1.1815250 
C     0.0539396   -1.9490197   -0.8729560 
H     2.2057227   -1.7225713   -0.5671934 
H     1.6789996   -1.4665754   -2.2384911 
C    -0.2649777   -2.0310033    0.6184424 
O     0.3638606   -1.1943695    1.5366011 
O    -1.2276163   -2.9292237    1.0909335 
H    -1.6208996   -3.5068899    0.3575743 
N    -1.0475594   -1.3131188   -1.6070252 
H     0.1531244   -2.9966578   -1.2397271 
H    -0.8698995   -1.4320867   -2.6312691 
H    -1.9317778   -1.8407546   -1.4136415 
