24
Energy =
C    -0.5766044    2.0280852   -0.2617401 
C    -0.2066009    1.8820986    1.0306106 
C     0.8276634    1.0568133    1.3450654 
C     0.0805582    1.3622094   -1.2439471 
C     1.1235309    0.5420458   -0.9358087 
C     1.4874911    0.3863303    0.3666817 
O    -0.9052340    2.5896869    2.0136761 
H    -0.5796352    2.4151571    2.9585097 
H    -0.2401794    1.4784237   -2.2775702 
H     2.3062428   -0.2772510    0.6344449 
H     1.1269554    0.9283709    2.3799086 
H    -1.4099591    2.6807621   -0.4977973 
C     1.8414057   -0.2249047   -2.0263632 
C     1.2054907   -1.6143580   -2.2721718 
H     2.9105699   -0.3541331   -1.7456746 
H     1.8344941    0.3574451   -2.9760607 
C    -0.2558888   -1.4935469   -2.6852713 
O    -0.6074164   -0.8090879   -3.8439737 
O    -1.2542872   -2.0347550   -1.8883317 
H    -2.1500525   -1.8667130   -2.3279643 
N     2.0151920   -2.3918738   -3.2443777 
H     1.1858883   -2.1758450   -1.3089217 
H     1.4531487   -2.6240774   -4.1007975 
H     2.8430788   -1.8559977   -3.5956749 
