24
Energy =
C    -0.2176321    1.5895207   -2.9284260 
C     0.0820321    2.7393505   -2.2819394 
C     0.9605111    2.7284899   -1.2525770 
C     0.3573439    0.4218467   -2.5436716 
C     1.2435563    0.4034857   -1.5091003 
C     1.5378149    1.5640411   -0.8604538 
O    -0.5090707    3.9344409   -2.6796565 
H    -1.3636152    4.1034535   -2.1598650 
H     0.0962770   -0.5005107   -3.0600319 
H     2.2377825    1.5682752   -0.0284668 
H     1.1974842    3.6597158   -0.7493469 
H    -0.9226452    1.6124492   -3.7528486 
C     1.8617486   -0.9008472   -1.0577104 
C     1.0145514   -1.5943162    0.0267601 
H     2.8859051   -0.7176619   -0.6590523 
H     1.9958862   -1.5863180   -1.9257829 
C    -0.3510619   -2.0328433   -0.5124091 
O    -0.4670503   -3.2305572   -1.2070867 
O    -1.4810717   -1.2237701   -0.3825867 
H    -1.2789577   -0.3460086    0.0722507 
N     1.7980045   -2.7187833    0.5709861 
H     0.8199110   -0.8712342    0.8516025 
H     1.2394670   -3.2089089    1.3110568 
H     1.9546552   -3.4317875   -0.1838250 
