24
Energy =
C     0.6188365    1.6642106    1.1540075 
C     0.2059691    2.6719775    0.3510337 
C     0.3472622    2.5698231   -0.9907559 
C     1.1687264    0.5461534    0.6167342 
C     1.3175627    0.4373244   -0.7331267 
C     0.8979530    1.4554719   -1.5354766 
O    -0.3587728    3.8161552    0.9059295 
H    -1.3637054    3.7125797    0.9973774 
H     1.4885297   -0.2587648    1.2736335 
H     0.9916613    1.3809905   -2.6169878 
H     0.0138596    3.3858198   -1.6231013 
H     0.5066179    1.7605265    2.2285701 
C     1.9008796   -0.8211322   -1.3377561 
C     0.8260400   -1.8985482   -1.5687536 
H     2.6866893   -1.2315898   -0.6640498 
H     2.4146388   -0.5898387   -2.2987100 
C    -0.2218238   -1.4421117   -2.5916811 
O     0.0742033   -1.4942715   -3.9487870 
O    -1.4485336   -0.9074111   -2.1948269 
H    -1.5364184   -0.8523523   -1.1910539 
N     1.5029990   -3.1444110   -1.9692552 
H     0.3002204   -2.0872236   -0.6051300 
H     0.7914030   -3.9074104   -2.0730106 
H     1.9345926   -3.0224023   -2.9184760 
