24
Energy =
C     1.7814439    2.4632635   -0.2419792 
C     0.5493186    2.9747684    0.0223641 
C    -0.5532680    2.3136916   -0.3983812 
C     1.9037850    1.2989380   -0.9280857 
C     0.7949163    0.6389753   -1.3635653 
C    -0.4368067    1.1501584   -1.0867989 
O     0.3885066    4.1746834    0.7223447 
H     1.2586323    4.5999025    1.0239157 
H     2.8947531    0.8966017   -1.1241153 
H    -1.3367537    0.6269014   -1.4025257 
H    -1.5314370    2.7247136   -0.1710400 
H     2.6712896    2.9826124    0.0975676 
C     0.9307063   -0.6737250   -2.1061254 
C     0.9948146   -1.8748262   -1.1430585 
H     1.8576560   -0.6611793   -2.7227700 
H     0.0946019   -0.8018753   -2.8277219 
C    -0.2698163   -2.0138945   -0.2896546 
O    -0.1766239   -1.8482520    1.0858830 
O    -1.5271683   -2.2424181   -0.8517082 
H    -1.4758387   -2.3919787   -1.8464270 
N     1.3079422   -3.0866962   -1.9213673 
H     1.8295199   -1.6989257   -0.4237927 
H     1.4531866   -3.8912461   -1.2638819 
H     0.5103286   -3.3481200   -2.5467159 
