24
Energy =
C    -0.0591253    2.1526351   -2.2209878 
C     0.6383749    2.9713893   -1.4007891 
C     1.6155318    2.4679055   -0.6115876 
C     0.2157312    0.8242520   -2.2515148 
C     1.2002699    0.3096668   -1.4617084 
C     1.8951834    1.1396650   -0.6350991 
O     0.3544371    4.3328536   -1.3732537 
H    -0.3473290    4.5371000   -0.6694796 
H    -0.3642704    0.1712175   -2.9005283 
H     2.6751794    0.7473684    0.0127841 
H     2.1686011    3.1375436    0.0384792 
H    -0.8407781    2.5688635   -2.8475423 
C     1.4854310   -1.1772218   -1.4658531 
C     0.6404251   -1.9290319   -0.4099355 
H     2.5662976   -1.3472143   -1.2623782 
H     1.2835224   -1.6071360   -2.4735128 
C    -0.8517037   -1.7621977   -0.6727692 
O    -1.6256005   -0.9695798    0.1651736 
O    -1.4428520   -2.3475396   -1.7856099 
H    -2.4331600   -2.1380878   -1.7714020 
N     1.0562076   -3.3523211   -0.3275520 
H     0.8127835   -1.4605567    0.5870741 
H     0.2577567   -3.9890602   -0.5734359 
H     1.8115282   -3.5880749   -1.0128946 
