24
Energy =
C     0.5220364    2.5350204   -1.1579071 
C     0.6505714    2.7786873    0.1736139 
C     1.1175591    1.8062224    0.9890985 
C     0.8613949    1.3228355   -1.6660871 
C     1.3383924    0.3456104   -0.8468251 
C     1.4591812    0.5928372    0.4866517 
O     0.3080169    4.0152379    0.7293078 
H    -0.0295242    4.6950499    0.0568574 
H     0.7489919    1.1403301   -2.7320377 
H     1.8227542   -0.1811294    1.1589243 
H     1.2117426    2.0109433    2.0503724 
H     0.1456643    3.3092116   -1.8172774 
C     1.6979864   -1.0121440   -1.4097372 
C     0.4688536   -1.9329262   -1.5268328 
H     2.4611801   -1.5100864   -0.7676667 
H     2.1736554   -0.8787780   -2.4077761 
C     0.8323112   -3.1819531   -2.3354577 
O     1.4020301   -4.2794762   -1.7013133 
O     0.6677855   -3.2219723   -3.7213769 
H     0.2808926   -2.3656999   -4.0889590 
N    -0.0072718   -2.2674307   -0.1720039 
H    -0.3409965   -1.4051878   -2.0815325 
H    -0.5667007   -1.4656298    0.2030442 
H    -0.6673358   -3.0812966   -0.2173770 
