24
Energy =
C    -0.2536280    2.3621721   -1.5017097 
C     0.1263207    2.9019038   -0.3214926 
C     1.0263065    2.2459607    0.4591647 
C     0.2600435    1.1754558   -1.9120633 
C     1.1676301    0.5182162   -1.1379092 
C     1.5422419    1.0577192    0.0546019 
O    -0.4230066    4.1285624    0.0646872 
H    -0.0972701    4.4618926    0.9656920 
H    -0.0666608    0.7512580   -2.8594575 
H     2.2555858    0.5415330    0.6926096 
H     1.3333029    2.6687593    1.4098644 
H    -0.9782373    2.8912813   -2.1110636 
C     1.7249978   -0.8189202   -1.5776041 
C     0.9197871   -1.9993472   -1.0088143 
H     2.7840755   -0.9096977   -1.2489667 
H     1.7462472   -0.8947570   -2.6890050 
C    -0.5246456   -1.9874071   -1.4967233 
O    -0.8205820   -1.8357483   -2.8482845 
O    -1.5634954   -2.1387638   -0.5879072 
H    -2.4432166   -2.1223737   -1.0879865 
N     1.6379925   -3.2404613   -1.3672928 
H     0.8604051   -1.8964518    0.1014425 
H     2.0163569   -3.6885774   -0.4998752 
H     0.9934004   -3.9433067   -1.8051346 
