24
Energy =
C    -1.0389723    1.7002224   -1.9683022 
C    -0.7379009    2.6162438   -1.0092670 
C     0.3619962    2.4433225   -0.2416430 
C    -0.2383389    0.6203314   -2.1555544 
C     0.8756820    0.4508696   -1.3905122 
C     1.1664764    1.3660879   -0.4254024 
O    -1.5409128    3.7399645   -0.7903431 
H    -2.3482440    3.7959152   -1.4017908 
H    -0.4958350   -0.1083422   -2.9206629 
H     2.0381063    1.2354806    0.2103376 
H     0.5870055    3.1763310    0.5254913 
H    -1.9220737    1.8272208   -2.5854009 
C     1.7564470   -0.7655694   -1.5829410 
C     1.3469872   -1.9091371   -0.6324178 
H     2.8195075   -0.4847806   -1.4179737 
H     1.6860670   -1.1113908   -2.6394523 
C     1.9068470   -3.2599952   -1.0798585 
O     1.0303808   -4.3134907   -1.3020751 
O     3.2746470   -3.4785468   -1.2509477 
H     3.8202825   -2.6490964   -1.0818617 
N     1.7334568   -1.5621356    0.7490567 
H     0.2367769   -2.0198738   -0.6832810 
H     1.2629680   -2.2278462    1.4092575 
H     2.7638038   -1.6927738    0.8867733 
