24
Energy =
C     0.3169515    2.4802219   -1.2839877 
C     0.2809224    2.8170725    0.0252417 
C     0.7489376    1.9440167    0.9568836 
C     0.8166776    1.2795628   -1.6721172 
C     1.2896144    0.4036362   -0.7437561 
C     1.2499157    0.7420175    0.5746621 
O    -0.2422961    4.0631003    0.3850962 
H    -0.2331010    4.2422578    1.3833470 
H     0.8349529    1.0262213   -2.7293498 
H     1.6162749    0.0533775    1.3319540 
H     0.7225892    2.2047114    2.0094589 
H    -0.0609136    3.1852225   -2.0165417 
C     1.8320035   -0.9405889   -1.1754010 
C     0.7050968   -1.9443992   -1.5206787 
H     2.4907508   -1.3748761   -0.3892373 
H     2.4857756   -0.7906670   -2.0651935 
C     1.2752321   -3.1832115   -2.1873777 
O     1.0340248   -3.4215188   -3.5358246 
O     2.1025449   -4.0500484   -1.4823727 
H     2.3713645   -4.8090158   -2.0945301 
N    -0.0676606   -2.2990110   -0.3170473 
H     0.0180315   -1.4937904   -2.2742191 
H     0.5745239   -2.6781863    0.4196567 
H    -0.5387033   -1.4489114    0.0711991 
