24
Energy =
C    -0.4099925    2.2074716   -1.5064751 
C    -0.0575992    2.8074794   -0.3467709 
C     0.8942988    2.2400928    0.4412310 
C     0.1810426    1.0468737   -1.8883696 
C     1.1419829    0.4801706   -1.1077835 
C     1.4892067    1.0803381    0.0639807 
O    -0.6900000    4.0024828    0.0113252 
H    -0.3757019    4.3864432    0.8960037 
H    -0.1220688    0.5767612   -2.8204696 
H     2.2386989    0.6299779    0.7101440 
H     1.1787609    2.7091548    1.3768373 
H    -1.1743341    2.6681003   -2.1228668 
C     1.7872299   -0.8247374   -1.5191922 
C     1.0214977   -2.0371228   -0.9541065 
H     2.8444681   -0.8606283   -1.1712445 
H     1.8327815   -0.8862137   -2.6299388 
C     1.4852968   -3.3273167   -1.6090391 
O     0.5601533   -4.1804595   -2.1971736 
O     2.8331057   -3.6650130   -1.6266605 
H     2.9411303   -4.5579777   -2.0911819 
N     1.1798621   -2.0711257    0.5116461 
H    -0.0599683   -1.9361187   -1.2107740 
H     0.5747719   -2.8327726    0.9024509 
H     2.1680035   -2.3350617    0.7459136 
