24
Energy =
C     0.8989194    1.7352414    1.0202571 
C     0.1983431    2.6482233    0.3098993 
C     0.0315224    2.4866960   -1.0230862 
C     1.4344102    0.6531892    0.3989362 
C     1.2741970    0.4846552   -0.9448502 
C     0.5624286    1.4067237   -1.6512792 
O    -0.3461437    3.7559765    0.9504571 
H    -1.2928961    3.5630166    1.2584418 
H     1.9798472   -0.0869182    0.9841309 
H     0.4106395    1.2829244   -2.7202441 
H    -0.5293996    3.2291744   -1.5805802 
H     1.0238840    1.8771424    2.0890846 
C     1.8553416   -0.7318557   -1.6394149 
C     0.9196535   -1.9567065   -1.5706369 
H     2.8362933   -0.9929545   -1.1806090 
H     2.0763264   -0.4964390   -2.7032667 
C     0.6916980   -2.3773957   -0.1222246 
O     1.7669984   -2.8191902    0.6278339 
O    -0.5342033   -2.2372278    0.5076596 
H    -1.1911015   -1.9719061   -0.2120138 
N    -0.3348364   -1.6651364   -2.2898244 
H     1.4325061   -2.8226522   -2.0542023 
H    -0.1132193   -1.4438741   -3.2944778 
H    -0.8981480   -2.5453967   -2.3219966 
