24
Energy =
C    -0.1486364    2.2850323   -1.6727639 
C     0.3864970    2.8929992   -0.5897018 
C     1.2952438    2.2287526    0.1731367 
C     0.2157804    1.0198353   -2.0018977 
C     1.1281206    0.3512321   -1.2440203 
C     1.6645038    0.9643410   -0.1523081 
O    -0.0142059    4.1979573   -0.2844960 
H     0.4176933    4.5772562    0.5511898 
H    -0.2325520    0.5435299   -2.8702949 
H     2.3872043    0.4429603    0.4708689 
H     1.7265098    2.7051642    1.0467107 
H    -0.8757493    2.8241436   -2.2702286 
C     1.5265407   -1.0672644   -1.5999892 
C     0.6921703   -2.1380489   -0.8650889 
H     2.6053557   -1.2198054   -1.3697312 
H     1.4225757   -1.2255576   -2.6965340 
C     0.8485335   -2.0616678    0.6472283 
O    -0.1250721   -1.4675211    1.4437104 
O     1.9986839   -2.5628223    1.2425530 
H     1.9350415   -2.4305072    2.2442440 
N    -0.7111713   -2.0720133   -1.3178730 
H     1.1132456   -3.1334163   -1.1391121 
H    -1.2409559   -2.8749181   -0.9016480 
H    -1.1617845   -1.2122364   -0.9199019 
