24
Energy =
C     0.2438408    1.9181731    0.7124803 
C    -0.1275388    2.7633936   -0.2750160 
C     0.2049016    2.4937157   -1.5580320 
C     0.9489947    0.7951287    0.4194329 
C     1.2892990    0.5146297   -0.8709584 
C     0.9073334    1.3720372   -1.8595036 
O    -0.8481754    3.9128598    0.0308601 
H    -1.8451448    3.7306023   -0.0165560 
H     1.2142976    0.1068228    1.2198251 
H     1.1520849    1.1615051   -2.8969599 
H    -0.0994390    3.1814896   -2.3394802 
H    -0.0377501    2.1447887    1.7358310 
C     2.0610022   -0.7489520   -1.2103545 
C     1.1723638   -2.0105955   -1.2125745 
H     2.9022816   -0.8764972   -0.4934394 
H     2.5308050   -0.6487134   -2.2133920 
C     0.7697159   -2.4044069    0.2122819 
O    -0.4108155   -1.9270032    0.7673111 
O     1.6283758   -3.1418394    1.0264794 
H     2.4559707   -3.4443355    0.5352920 
N     0.0157070   -1.7862217   -2.0972168 
H     1.7714516   -2.8581802   -1.6171044 
H     0.3132009   -1.9061319   -3.0929287 
H    -0.7193269   -2.5106067   -1.9099292 
