24
Energy =
C    -0.7018817    2.2473654   -1.0273922 
C    -0.6241331    2.3770761    0.3160880 
C     0.2763686    1.6335942    1.0115559 
C     0.1094686    1.3794516   -1.6837458 
C     1.0101499    0.6262865   -0.9925123 
C     1.0917394    0.7656276    0.3608904 
O    -1.4772804    3.2826449    0.9546728 
H    -1.3684114    3.3119374    1.9627013 
H     0.0316236    1.2968436   -2.7644142 
H     1.8074950    0.1793899    0.9329295 
H     0.3463837    1.7306239    2.0895802 
H    -1.4231433    2.8492061   -1.5698110 
C     1.9199243   -0.3467895   -1.7207594 
C     1.4537721   -1.8235946   -1.6322732 
H     2.9481809   -0.2651326   -1.3002963 
H     2.0141343   -0.0641115   -2.7925892 
C     1.4502633   -2.3371229   -0.1943209 
O     2.6550542   -2.6445955    0.4261530 
O     0.2746643   -2.4193496    0.5439443 
H     0.4918225   -2.7770846    1.4653069 
N     0.1831906   -2.0493224   -2.3661500 
H     2.2344208   -2.4393002   -2.1339424 
H    -0.5519955   -2.4480614   -1.7319001 
H    -0.2251648   -1.1628674   -2.7369147 
