24
Energy =
C    -0.2080707    2.3182565   -1.2669028 
C     0.4243494    2.8091351   -0.1765901 
C     1.4259683    2.1053563    0.3996180 
C     0.1558057    1.1164465   -1.7819935 
C     1.1647953    0.4020955   -1.2096169 
C     1.7958921    0.9035121   -0.1105029 
O     0.0470278    4.0405944    0.3491655 
H    -0.6698417    3.9197167    1.0566763 
H    -0.3717965    0.7223201   -2.6463048 
H     2.5918076    0.3412814    0.3718020 
H     1.9247164    2.5108531    1.2729677 
H    -1.0099943    2.8916963   -1.7195137 
C     1.5539782   -0.9543789   -1.7636193 
C     0.6580135   -2.0875360   -1.2242101 
H     2.6159479   -1.1783522   -1.5143449 
H     1.4969110   -0.9352952   -2.8738659 
C     0.7163970   -2.1694579    0.2967302 
O    -0.3228731   -1.6926188    1.0901877 
O     1.8428964   -2.7062055    0.9089105 
H     1.7137259   -2.6829298    1.9125769 
N    -0.7110997   -1.9125853   -1.7469960 
H     1.0728732   -3.0597338   -1.5786066 
H    -0.7364205   -2.2132320   -2.7491721 
H    -1.3714300   -2.5423647   -1.2294791 
