24
Energy =
C     0.5694295    0.5783103    1.5680405 
C    -0.1052201    1.7077067    1.2544841 
C    -0.0954618    2.1628020   -0.0269342 
C     1.2565191   -0.0995368    0.6145689 
C     1.2780148    0.3567870   -0.6679907 
C     0.5907488    1.4893776   -0.9845376 
O    -0.7994200    2.3788244    2.2659330 
H    -1.2901353    3.2084689    1.9495402 
H     1.7856549   -1.0097168    0.8842434 
H     0.5795725    1.8590267   -2.0078628 
H    -0.6394136    3.0637115   -0.2902701 
H     0.5486972    0.2220856    2.5921737 
C     2.0229861   -0.4117711   -1.7385785 
C     1.1636893   -1.5553372   -2.3257457 
H     2.9575601   -0.8312511   -1.3054000 
H     2.3404601    0.2746703   -2.5566871 
C    -0.0964489   -1.0317293   -3.0000527 
O    -0.0100028   -0.1020569   -4.0338539 
O    -1.3491113   -1.4454458   -2.5629460 
H    -2.0559600   -1.0033978   -3.1350906 
N     1.9717666   -2.3556742   -3.2606848 
H     0.8217723   -2.2187988   -1.4983491 
H     2.3154872   -1.7479835   -4.0435719 
H     2.8081029   -2.7460713   -2.7669422 
