24
Energy =
C     0.0537970    2.4680890   -1.5589055 
C     0.3230170    2.9231989   -0.3139669 
C     1.0511876    2.1679706    0.5406269 
C     0.5090697    1.2510839   -1.9528973 
C     1.2443643    0.4854634   -1.0984351 
C     1.5083487    0.9493441    0.1546318 
O    -0.1443878    4.1710476    0.0846454 
H    -1.0578473    4.0891248    0.5179203 
H     0.2746467    0.8869224   -2.9523696 
H     2.0866131    0.3504992    0.8541298 
H     1.2643056    2.5487852    1.5337670 
H    -0.5297567    3.0856566   -2.2340088 
C     1.7336970   -0.8829811   -1.5217590 
C     0.7571995   -2.0002191   -1.1179034 
H     2.7266659   -1.0836465   -1.0619044 
H     1.8955054   -0.9280785   -2.6230791 
C    -0.5944944   -1.8642874   -1.8173084 
O    -1.7585419   -2.2164755   -1.1459188 
O    -0.6827799   -1.4214530   -3.1343854 
H    -1.6498212   -1.4818496   -3.4295718 
N     1.4223373   -3.2912133   -1.3960314 
H     0.5395821   -1.9106688   -0.0269249 
H     1.6269929   -3.7813771   -0.4935928 
H     0.7968564   -3.9322933   -1.9428761 
