24
Energy =
C     0.5931667    2.6761067   -0.6100583 
C     1.7051140    2.6739349    0.1552557 
C     2.4737491    1.5569820    0.2249249 
C     0.2310310    1.5644227   -1.3028511 
C     0.9907698    0.4286457   -1.2359473 
C     2.1243309    0.4400215   -0.4687543 
O     2.0278598    3.8345484    0.8552313 
H     2.8954284    3.8105598    1.3884587 
H    -0.6599664    1.6108292   -1.9251097 
H     2.7839496   -0.4246046   -0.4083292 
H     3.3775518    1.5662445    0.8323019 
H     0.0079184    3.5935498   -0.6624674 
C     0.6056953   -0.8119108   -2.0418560 
C     0.0704985   -1.9985383   -1.1353003 
H     1.5340742   -1.0841818   -2.6216394 
H    -0.1637220   -0.5322295   -2.8001051 
C    -0.8902580   -1.5734377   -0.0702418 
O    -0.4432678   -1.0714767    1.1242379 
O    -2.2516211   -1.6561257   -0.2793610 
H    -2.7331927   -1.3382223    0.6015403 
N    -0.6820609   -3.0054591   -1.8710231 
H     0.9332127   -2.4842828   -0.6247330 
H    -0.1468842   -3.3025245   -2.7269182 
H    -0.7440763   -3.8149571   -1.2107446 
