24
Energy =
C     0.4146903    2.0806391    0.6196973 
C     0.1444077    2.9012230   -0.4204869 
C     0.4906897    2.5252014   -1.6806968 
C     1.0322163    0.8897213    0.4135524 
C     1.3897596    0.5126859   -0.8441277 
C     1.1068656    1.3344412   -1.8926500 
O    -0.4910993    4.1209877   -0.1671865 
H    -0.6635633    4.6769832   -0.9976805 
H     1.2263390    0.2318130    1.2575312 
H     1.3699477    1.0456647   -2.9073066 
H     0.2727930    3.1745363   -2.5217910 
H     0.1241423    2.3884324    1.6183395 
C     2.0592581   -0.8240190   -1.0773197 
C     1.0312241   -1.9712485   -1.1324496 
H     2.7983345   -1.0304366   -0.2707551 
H     2.6482989   -0.7943396   -2.0217273 
C     1.6429672   -3.2305751   -1.7268105 
O     0.9441202   -3.9583721   -2.6818624 
O     2.8952611   -3.6711536   -1.3150335 
H     3.1165187   -4.5297248   -1.8033032 
N     0.4915100   -2.1993658    0.2220083 
H     0.2033019   -1.6843737   -1.8246107 
H    -0.2990294   -2.8862087    0.1611862 
H     1.2269522   -2.6573190    0.8140591 
