24
Energy =
C     0.4771661    2.5081307   -1.1290684 
C     0.8451297    2.8353435    0.1302491 
C     1.4802588    1.9159854    0.9049769 
C     0.7361893    1.2705018   -1.6220740 
C     1.3698573    0.3451454   -0.8500708 
C     1.7421074    0.6767156    0.4174859 
O     0.5592461    4.1204540    0.6020013 
H     0.8692549    4.2899728    1.5527422 
H     0.4344682    1.0282252   -2.6381275 
H     2.2528737   -0.0449052    1.0502188 
H     1.7807644    2.1700867    1.9157955 
H    -0.0270396    3.2516945   -1.7368293 
C     1.6506699   -1.0370675   -1.3995787 
C     0.3693335   -1.9049053   -1.4828434 
H     2.4150666   -1.5688771   -0.7872393 
H     2.1006172   -0.9286414   -2.4129382 
C     0.6186694   -3.1494593   -2.3135319 
O     1.6693969   -4.0104675   -2.0107818 
O    -0.1788619   -3.4125161   -3.4210528 
H     0.1202893   -4.2850416   -3.8376361 
N    -0.1258101   -2.2698780   -0.1370188 
H    -0.4157499   -1.3443072   -2.0443633 
H     0.4169908   -1.8161251    0.6331530 
H    -1.1196798   -1.9577611   -0.0298368 
