24
Energy =
C    -0.0145617    2.0361466    0.3789687 
C    -0.3185737    2.7275903   -0.7422577 
C     0.1772000    2.3319314   -1.9368952 
C     0.7855971    0.9409152    0.3088454 
C     1.2864297    0.5324488   -0.8906147 
C     0.9748628    1.2363660   -2.0154858 
O    -1.1364452    3.8498226   -0.6645775 
H    -2.1091370    3.5926499   -0.7940394 
H     1.0051621    0.3795368    1.2150825 
H     1.3597640    0.9288532   -2.9842476 
H    -0.0696303    2.9008449   -2.8268520 
H    -0.4223817    2.3653694    1.3293663 
C     2.1700016   -0.6977105   -0.9791111 
C     1.3880790   -2.0367752   -0.9271084 
H     2.9232318   -0.6753305   -0.1588739 
H     2.7626972   -0.6727877   -1.9203702 
C     0.8941579   -2.3658470    0.4728836 
O    -0.2566596   -1.7802583    0.9910186 
O     1.6594657   -3.1742604    1.2996835 
H     1.1636554   -3.2978292    2.1731963 
N     0.3065031   -2.0681180   -1.9292069 
H     2.1009295   -2.8602757   -1.1627194 
H    -0.4703349   -1.4293981   -1.6301914 
H     0.6600685   -1.7317987   -2.8543962 
