24
Energy =
C     1.1733088    2.1282556    0.2590358 
C     0.3593300    1.7573749    1.2735174 
C    -0.0690404    0.4774604    1.3649569 
C     1.5578008    1.2198718   -0.6731517 
C     1.1347501   -0.0722549   -0.5859227 
C     0.3129695   -0.4376039    0.4371316 
O    -0.0328877    2.6903157    2.2273493 
H    -0.9206546    3.1103528    1.9729850 
H     2.1975698    1.5371930   -1.4944207 
H    -0.0430207   -1.4613890    0.5137303 
H    -0.7177937    0.1973857    2.1879940 
H     1.5099605    3.1579583    0.1959068 
C     1.5375691   -1.0814049   -1.6398629 
C     0.4547969   -1.2314531   -2.7323263 
H     1.7297508   -2.0647256   -1.1584423 
H     2.4960308   -0.7757805   -2.1209806 
C     0.2283948    0.0735400   -3.4776086 
O    -1.0317365    0.6611939   -3.4905939 
O     1.2865402    0.7191823   -4.1090482 
H     0.9298713    1.5477580   -4.5672685 
N     0.8271446   -2.3145645   -3.6580751 
H    -0.5225584   -1.4861077   -2.2625339 
H     1.7113689   -2.0578114   -4.1613649 
H     1.0006875   -3.2027864   -3.1329194 
