24
Energy =
C     0.0263201    2.2438523    0.1517686 
C    -0.0760859    2.8171369   -1.0692373 
C     0.4961918    2.2274540   -2.1442343 
C     0.6964575    1.0733084    0.3013917 
C     1.2745972    0.4728769   -0.7766065 
C     1.1678120    1.0562280   -2.0029334 
O    -0.7640976    4.0172030   -1.2180081 
H    -1.7408296    3.8469206   -1.4306354 
H     0.7661712    0.6235887    1.2884117 
H     1.6212359    0.5920316   -2.8757211 
H     0.4142335    2.7038560   -3.1152966 
H    -0.4292394    2.7308917    1.0074218 
C     2.0099431   -0.8396610   -0.6222369 
C     1.1505405   -2.0458910   -1.0699910 
H     2.3468824   -0.9850048    0.4292756 
H     2.9425257   -0.8005007   -1.2319390 
C     1.9925656   -3.3074166   -1.1276910 
O     2.5925700   -3.6820409   -2.3215472 
O     2.2476236   -4.0479280    0.0185451 
H     1.4693095   -4.6732637    0.1671815 
N    -0.0157742   -2.2204990   -0.1849999 
H     0.7954447   -1.8824520   -2.1141911 
H     0.2902138   -2.2250810    0.8176193 
H    -0.6739443   -1.4158108   -0.3093966 
