24
Energy =
C     0.4077639    2.5343465   -1.1222994 
C     0.3974947    2.7784589    0.2077838 
C     0.8653977    1.8347361    1.0678067 
C     0.8818411    1.3566887   -1.6022063 
C     1.3548413    0.4103588   -0.7456647 
C     1.3407533    0.6552320    0.5938291 
O    -0.0995101    4.0038621    0.6630113 
H    -0.0729559    4.1116395    1.6711693 
H     0.8785402    1.1786039   -2.6749597 
H     1.7068012   -0.0904869    1.2952431 
H     0.8592258    2.0208484    2.1364200 
H     0.0297960    3.2948263   -1.7970673 
C     1.8686270   -0.9079676   -1.2798419 
C     0.7202883   -1.8652859   -1.6801753 
H     2.5301942   -1.4083234   -0.5367872 
H     2.5120721   -0.7055063   -2.1670112 
C     1.2626202   -3.0580956   -2.4459724 
O     2.0079052   -4.0380062   -1.7976925 
O     1.1027384   -3.1269612   -3.8241941 
H     1.5256324   -3.9839568   -4.1581007 
N    -0.0430010   -2.2940216   -0.4943273 
H     0.0311645   -1.3519101   -2.3903134 
H     0.5991136   -2.7372256    0.2057420 
H    -0.4974596   -1.4674548   -0.0409773 
