24
Energy =
C     2.3544932    1.8282902    0.2267272 
C     1.2569904    2.5803266    0.4663449 
C     0.0907842    2.2873224   -0.1671784 
C     2.2991289    0.7861622   -0.6408549 
C     1.1361600    0.4914939   -1.2860392 
C     0.0304536    1.2484028   -1.0402218 
O     1.3544985    3.6448832    1.3677357 
H     0.4867447    4.1501527    1.5112552 
H     3.1936138    0.1920411   -0.8108005 
H    -0.9167529    1.0088733   -1.5224822 
H    -0.7969798    2.8788216    0.0309752 
H     3.2776151    2.0698805    0.7427585 
C     1.0732061   -0.6782856   -2.2500258 
C     0.2950547   -1.8793031   -1.6711619 
H     2.1036093   -1.0047055   -2.5145050 
H     0.6159689   -0.3657305   -3.2164704 
C    -1.2044604   -1.6741514   -1.8121904 
O    -1.8600343   -1.9663984   -3.0011083 
O    -1.9208731   -1.0857701   -0.7775098 
H    -2.9082292   -1.1130154   -1.0083604 
N     0.7489835   -3.1000970   -2.3614383 
H     0.4848609   -1.9707071   -0.5742911 
H     1.6679251   -3.3994771   -1.9597752 
H     0.0766787   -3.8828884   -2.1720452 
