24
Energy =
C    -0.0627282    2.3897807   -0.9254660 
C     0.5455754    2.6764477    0.2560049 
C     1.4508056    1.8124801    0.7686821 
C     0.2423993    1.2464018   -1.5901653 
C     1.1629276    0.3811877   -1.0821852 
C     1.7597709    0.6680354    0.1083867 
O     0.2596941    3.8493426    0.9618692 
H    -0.4515722    4.4306432    0.5325878 
H    -0.2635565    1.0187367   -2.5247228 
H     2.4766886   -0.0222088    0.5465190 
H     1.9191310    2.0446192    1.7192624 
H    -0.7985112    3.0714508   -1.3369758 
C     1.4888934   -0.9072691   -1.8132164 
C     0.5027861   -2.0420179   -1.4711346 
H     2.5262328   -1.2297349   -1.5729824 
H     1.4735100   -0.7282236   -2.9107251 
C     0.4978391   -2.3437580    0.0339736 
O    -0.5452065   -1.9003631    0.8392226 
O     1.5602000   -3.0231234    0.6342903 
H     2.2516554   -3.3171244   -0.0392858 
N    -0.8295483   -1.6934525   -1.9968640 
H     0.8531447   -2.9702966   -1.9776549 
H    -0.8375130   -1.8399174   -3.0332012 
H    -1.5463520   -2.3498355   -1.6021266 
