24
Energy =
C     0.8741710    2.3216628    0.3577967 
C    -0.4238458    2.5692762    0.0682779 
C    -1.0602983    1.8329270   -0.8715714 
C     1.5399378    1.3313177   -0.2890114 
C     0.9075009    0.5883195   -1.2394070 
C    -0.4011022    0.8408510   -1.5227168 
O    -1.1032111    3.5848059    0.7337837 
H    -1.5688153    3.2223267    1.5584686 
H     2.5784994    1.1326296   -0.0363786 
H    -0.9261140    0.2522388   -2.2707712 
H    -2.0992321    2.0471169   -1.0971800 
H     1.3742955    2.9203332    1.1117227 
C     1.6392637   -0.5302610   -1.9477836 
C     1.4767160   -1.8713625   -1.2075588 
H     2.7224076   -0.2882652   -2.0398991 
H     1.2581214   -0.6233204   -2.9897045 
C     1.9808557   -3.0248240   -2.0607729 
O     1.1104392   -4.0338313   -2.4538971 
O     3.3092723   -3.0729361   -2.4663124 
H     3.4519908   -3.9079632   -3.0204931 
N     2.1691914   -1.7960613    0.0921233 
H     0.3905813   -2.0616193   -1.0385335 
H     1.9693841   -2.6701418    0.6346650 
H     3.2058907   -1.7859677   -0.0699279 
