24
Energy =
C     0.1511624    2.4394952   -1.3786532 
C    -0.7262074    2.5389677   -0.3446401 
C    -0.7118206    1.6081116    0.6362251 
C     1.0366018    1.4116690   -1.4262331 
C     1.0557091    0.4769864   -0.4360736 
C     0.1718398    0.5792182    0.5946540 
O    -1.6529393    3.5831265   -0.2671071 
H    -1.5984611    4.2457063   -1.0328631 
H     1.7305842    1.3424110   -2.2609395 
H     0.1617464   -0.1667772    1.3857174 
H    -1.4189971    1.6956051    1.4542441 
H     0.1443427    3.1813130   -2.1696064 
C     2.0325453   -0.6780607   -0.4989502 
C     1.5173493   -1.8313837   -1.3889561 
H     2.2356227   -1.0737879    0.5216688 
H     3.0076624   -0.2927597   -0.8749861 
C     2.6727986   -2.8045622   -1.7246473 
O     3.8976453   -2.2653362   -2.1092058 
O     2.5231578   -4.1984780   -1.7830225 
H     1.6346055   -4.5746037   -1.4924881 
N     0.3515328   -2.4463485   -0.7057104 
H     1.2098624   -1.4118278   -2.3771960 
H    -0.4714543   -1.8077068   -0.8009830 
H     0.0540128   -3.3380266   -1.1809184 
