24
Energy =
C    -0.7459891    2.2355599   -1.0060352 
C    -0.7217739    2.3279758    0.3426092 
C     0.1754348    1.5917598    1.0501135 
C     0.1163196    1.4131961   -1.6556963 
C     1.0143049    0.6678890   -0.9528597 
C     1.0412221    0.7687973    0.4060846 
O    -1.6249684    3.1889786    0.9745212 
H    -1.5568933    3.1880319    1.9864415 
H     0.0806669    1.3604444   -2.7401081 
H     1.7533194    0.1873262    0.9870634 
H     0.2025112    1.6588740    2.1322685 
H    -1.4657155    2.8296628   -1.5584727 
C     1.9817699   -0.2539407   -1.6733351 
C     1.5497601   -1.7451462   -1.6682676 
H     2.9855023   -0.1670170   -1.1980661 
H     2.1226194    0.0783461   -2.7254876 
C     1.4396834   -2.3088675   -0.2592968 
O     2.5970879   -2.6582384    0.4291659 
O     0.2169283   -2.4014179    0.3957908 
H     0.3645897   -2.8076330    1.3087810 
N     0.3126570   -1.9675925   -2.4474108 
H     2.3815686   -2.3237700   -2.1340925 
H    -0.0677517   -1.0877665   -2.8623853 
H     0.5029074   -2.6233623   -3.2405239 
