24
Energy =
C     1.0203780    1.9019164    1.0113209 
C     0.4750903    2.8184022    0.1797568 
C     0.3936280    2.5534995   -1.1515470 
C     1.4857906    0.7229930    0.5261822 
C     1.4098621    0.4546713   -0.8063704 
C     0.8576344    1.3764659   -1.6426031 
O     0.0059920    4.0206710    0.7186258 
H    -0.3884258    4.6548816    0.0323280 
H     1.9157967   -0.0016772    1.2129331 
H     0.7826583    1.1779153   -2.7093275 
H    -0.0438914    3.2817602   -1.8259920 
H     1.0776111    2.1251692    2.0711709 
C     1.9122428   -0.8627859   -1.3534895 
C     0.7585271   -1.8480780   -1.6593546 
H     2.6325005   -1.3380672   -0.6495355 
H     2.4899131   -0.6634264   -2.2854593 
C     1.2702015   -3.0414781   -2.4451527 
O     2.0777163   -3.9976724   -1.8372747 
O     1.0174100   -3.1330015   -3.8080871 
H     1.4330246   -3.9867217   -4.1590848 
N     0.0888369   -2.2736120   -0.4171908 
H     0.0110122   -1.3588595   -2.3260859 
H     0.7868608   -2.6951794    0.2415375 
H    -0.3479736   -1.4489782    0.0565519 
