24
Energy =
C    -0.0395992    2.5353383   -1.0681999 
C     0.1789590    2.6934660    0.2565760 
C     0.8743020    1.7465910    0.9401316 
C     0.4269128    1.4382733   -1.7171048 
C     1.1191450    0.4816282   -1.0370388 
C     1.3457252    0.6491395    0.2964642 
O    -0.3178301    3.8382529    0.8879109 
H    -0.1312283    3.8741144    1.8843576 
H     0.2420027    1.3359065   -2.7830169 
H     1.9006802   -0.0974035    0.8593188 
H     1.0543462    1.8635246    2.0032831 
H    -0.5938489    3.3001621   -1.6016807 
C     1.6436813   -0.7475101   -1.7581528 
C     0.7792383   -2.0181160   -1.5449843 
H     2.6826548   -0.9536652   -1.4136407 
H     1.7255446   -0.5508573   -2.8500723 
C     0.7725197   -2.4715210   -0.0899677 
O    -0.2164493   -2.0536846    0.7953246 
O     1.8206115   -3.2467685    0.3884792 
H     1.6520230   -3.4604298    1.3636176 
N    -0.5708799   -1.8809524   -2.1463980 
H     1.2924865   -2.8538359   -2.0738680 
H    -1.3226061   -2.0297899   -1.4297712 
H    -0.7411849   -0.9265676   -2.5349534 
