24
Energy =
C     1.3156912    1.8563740    0.9869058 
C     1.0247053    2.8587709    0.1263827 
C     0.9098695    2.6026463   -1.1971548 
C     1.5040419    0.5938311    0.5247708 
C     1.4050423    0.3314161   -0.8081863 
C     1.0989807    1.3434335   -1.6672086 
O     0.8348609    4.1515778    0.6048037 
H     1.7109355    4.6617265    0.6136140 
H     1.7298132   -0.2040473    1.2277171 
H     0.9939792    1.1509586   -2.7328886 
H     0.6581644    3.4119736   -1.8737456 
H     1.3886339    2.0731359    2.0472722 
C     1.5923121   -1.0790239   -1.3230618 
C     0.2966794   -1.9036377   -1.2391624 
H     2.3880244   -1.5886459   -0.7360751 
H     1.9539530   -1.0706368   -2.3769314 
C    -0.8028056   -1.3248960   -2.1247990 
O    -0.5659770   -1.0539172   -3.4694676 
O    -2.0665743   -1.0920773   -1.5973223 
H    -2.6609234   -0.7122921   -2.3227730 
N     0.6371031   -3.3008685   -1.5814004 
H    -0.0984787   -1.8504905   -0.1962456 
H     0.5228261   -3.9060063   -0.7344764 
H    -0.0113487   -3.6875652   -2.3102275 
