24
Energy =
C     1.2952562    2.5371785   -0.6107112 
C    -0.0231308    2.7987372   -0.4061961 
C    -0.9470215    1.8653984   -0.7267184 
C     1.6814598    1.3484110   -1.1403299 
C     0.7510596    0.4111810   -1.4744920 
C    -0.5661800    0.6753390   -1.2564310 
O    -0.4555977    4.0154789    0.1303109 
H     0.2958312    4.6517428    0.3726557 
H     2.7406770    1.1493799   -1.2845592 
H    -1.3163877   -0.0752698   -1.4884144 
H    -1.9945002    2.0807472   -0.5449292 
H     2.0429709    3.2765520   -0.3464480 
C     1.1801978   -0.9239639   -2.0537247 
C     1.0539908   -2.0801268   -1.0413210 
H     2.2351456   -0.8706711   -2.4059073 
H     0.5667101   -1.1492076   -2.9529282 
C     1.7884413   -1.7689561    0.2592636 
O     1.1064412   -1.3422830    1.3947253 
O     3.1722953   -1.8845557    0.3052675 
H     3.4875546   -1.6318245    1.2330911 
N    -0.3767018   -2.3993127   -0.8540235 
H     1.5856859   -2.9692713   -1.4554299 
H    -0.7015689   -2.9995642   -1.6482948 
H    -0.5004705   -2.9726857    0.0166717 
