24
Energy =
C    -0.8899147    1.6805821   -1.7699255 
C    -1.2230952    2.1929115   -0.5623770 
C    -0.4624040    1.8974461    0.5260569 
C     0.1939913    0.8760095   -1.8995060 
C     0.9596213    0.5764226   -0.8131776 
C     0.6226770    1.0938644    0.4019081 
O    -2.3498185    3.0170020   -0.4671620 
H    -2.5296907    3.3655919    0.4686718 
H     0.4441947    0.4756132   -2.8790303 
H     1.2162151    0.8661451    1.2837479 
H    -0.7196948    2.3017003    1.4997680 
H    -1.5004530    1.9211101   -2.6341609 
C     2.1661344   -0.3312069   -0.9581979 
C     1.7756105   -1.8225351   -1.1399874 
H     2.8432492   -0.2330038   -0.0799358 
H     2.7455378    0.0233157   -1.8399781 
C     3.0099283   -2.6430803   -1.5407867 
O     3.9511556   -2.0778462   -2.3999662 
O     3.2079412   -3.9753111   -1.1511560 
H     2.4772470   -4.3655601   -0.5753154 
N     1.1522054   -2.3415350    0.0896491 
H     1.0407491   -1.8985882   -1.9738734 
H     0.3814635   -1.7045501    0.3917531 
H     0.6577987   -3.2342394   -0.1435970 
