24
Energy =
C     0.8886349    2.1819072    0.7245049 
C    -0.3115109    2.6065286    0.2445845 
C    -0.7825024    2.1007467   -0.9181188 
C     1.6111526    1.2608710    0.0382383 
C     1.1422243    0.7602821   -1.1375110 
C    -0.0636700    1.1807204   -1.6084560 
O    -1.0785078    3.5600336    0.9239185 
H    -0.6735491    3.8680658    1.8012955 
H     2.5627972    0.9242638    0.4406675 
H    -0.4658839    0.7709644   -2.5312012 
H    -1.7462305    2.4355247   -1.2856201 
H     1.2712156    2.5753426    1.6598805 
C     1.9286047   -0.2922883   -1.8917244 
C     1.4721191   -1.7608333   -1.6128905 
H     3.0102150   -0.1961137   -1.6457875 
H     1.8731747   -0.0578755   -2.9788279 
C     0.3845132   -1.9088060   -0.5369410 
O    -0.9594136   -1.8644997   -0.8952414 
O     0.7111680   -2.0124104    0.8172727 
H     1.7056164   -1.9535889    0.9715419 
N     1.0731866   -2.4092793   -2.8735359 
H     2.3463773   -2.3252069   -1.2167731 
H     0.2539656   -1.9034817   -3.2895563 
H     1.8599936   -2.3728142   -3.5640143 
