24
Energy =
C     2.3044624    1.9271331    0.2276711 
C     1.1741023    2.6384122    0.4372249 
C     0.0280682    2.2812472   -0.2002436 
C     2.3019322    0.8625499   -0.6140545 
C     1.1595596    0.5041645   -1.2635793 
C     0.0207394    1.2193813   -1.0473956 
O     1.2174352    3.7281716    1.3122262 
H     0.3277395    4.1995463    1.4352181 
H     3.2215964    0.3015828   -0.7596095 
H    -0.9093307    0.9284056   -1.5337013 
H    -0.8856312    2.8398947   -0.0260252 
H     3.2109434    2.2193792    0.7470276 
C     1.1539400   -0.6911756   -2.1969432 
C     0.4090096   -1.9059672   -1.5844326 
H     2.2005903   -0.9777898   -2.4417953 
H     0.6928101   -0.4121065   -3.1720224 
C    -1.0927543   -1.7891515   -1.7740792 
O    -1.6876597   -2.1337448   -2.9822317 
O    -1.8704946   -1.1923509   -0.7886287 
H    -2.8465734   -1.2859425   -1.0466183 
N     0.9238037   -3.1584308   -2.1657982 
H     0.5592834   -1.9367240   -0.4790271 
H     0.7901847   -3.1504665   -3.2061559 
H     1.9466997   -3.2564585   -1.9676942 
