24
Energy =
C     0.2261112    1.8527158    0.8397484 
C    -0.0452317    2.7906795   -0.0957211 
C     0.3728658    2.6034884   -1.3761914 
C     0.9152936    0.7311201    0.5091381 
C     1.3443595    0.5430446   -0.7683571 
C     1.0609664    1.4827761   -1.7123389 
O    -0.7563163    3.9333125    0.2844082 
H    -0.9223965    4.5869697   -0.4730728 
H     1.1111928   -0.0229786    1.2674572 
H     1.3822449    1.3440494   -2.7417610 
H     0.1554038    3.3478986   -2.1345375 
H    -0.1212531    2.0104939    1.8550398 
C     2.0931654   -0.7170332   -1.1433992 
C     1.1267194   -1.8808987   -1.4377192 
H     2.7900760   -1.0075922   -0.3250059 
H     2.7341254   -0.5219716   -2.0333220 
C     1.8424433   -3.0211673   -2.1420177 
O     2.8794936   -3.7033163   -1.5149063 
O     1.4711643   -3.3784253   -3.4310851 
H     2.0516838   -4.1491896   -3.7376540 
N     0.4884893   -2.3110264   -0.1774599 
H     0.3477426   -1.5330603   -2.1587802 
H    -0.2468101   -3.0268559   -0.3936593 
H     1.1985965   -2.7997102    0.4212058 
