24
Energy =
C     0.1084950    2.5134816   -1.3530064 
C     0.2513811    2.8217015   -0.0438040 
C     0.8863344    1.9645838    0.7877273 
C     0.5928465    1.3402853   -1.8341326 
C     1.2270343    0.4663572   -1.0019924 
C     1.3739327    0.7897910    0.3140589 
O    -0.2465937    4.0250459    0.4452406 
H    -1.2001740    3.9116719    0.7714690 
H     0.4676057    1.1053220   -2.8879417 
H     1.8850523    0.1147212    0.9957923 
H     1.0032014    2.2295894    1.8331134 
H    -0.3933040    3.2146227   -2.0116968 
C     1.7591919   -0.8498602   -1.5368999 
C     0.7655045   -2.0326223   -1.3863820 
H     2.7138763   -1.1001890   -1.0197558 
H     2.0301343   -0.7381434   -2.6099119 
C     0.4954984   -2.4054121    0.0782042 
O     1.5462950   -2.3828862    0.9879682 
O    -0.7451520   -2.8619284    0.5200060 
H    -1.3933926   -2.9483213   -0.2479532 
N    -0.4646146   -1.7782695   -2.1652543 
H     1.2602678   -2.9402980   -1.8027834 
H    -0.9671411   -0.9374857   -1.7910411 
H    -0.2206899   -1.5785293   -3.1649236 
