24
Energy =
C     0.9305853    2.4207948    0.2979183 
C     0.0957404    2.9864050   -0.6030024 
C    -0.1547114    2.3513985   -1.7791199 
C     1.5227759    1.2294025    0.0327463 
C     1.2869099    0.5956129   -1.1493253 
C     0.4349478    1.1592531   -2.0495850 
O    -0.4914309    4.2169599   -0.2946341 
H    -1.1242895    4.5624951   -1.0082009 
H     2.1739425    0.7788140    0.7773439 
H     0.2104254    0.6528998   -2.9848668 
H    -0.8328785    2.7912707   -2.5026527 
H     1.1115884    2.9307199    1.2379726 
C     1.9212699   -0.7519633   -1.4350030 
C     1.1011933   -1.9764504   -0.9155019 
H     2.9356642   -0.7800093   -0.9783460 
H     2.1059881   -0.8378195   -2.5289230 
C    -0.1457749   -1.6150530   -0.1146288 
O    -1.3463113   -1.3176998   -0.7539024 
O    -0.0638036   -1.4799920    1.2668204 
H    -0.9783341   -1.2287371    1.6204299 
N     0.7832052   -2.8887881   -2.0282424 
H     1.7346962   -2.5339404   -0.1880071 
H     0.1751624   -2.3942676   -2.7249419 
H     1.6624994   -3.1841723   -2.5137716 
