24
Energy =
C    -0.6338309    2.1915636   -0.6618156 
C     0.1851881    2.5783090    0.3430289 
C     1.4025117    2.0042283    0.4837001 
C    -0.2326171    1.2360535   -1.5378920 
C     0.9966708    0.6616522   -1.4101520 
C     1.8101841    1.0466466   -0.3879639 
O    -0.2286520    3.5591128    1.2386458 
H     0.0480306    4.4800561    0.9166337 
H    -0.9034041    0.9260738   -2.3369074 
H     2.7884521    0.5900150   -0.2605157 
H     2.0423788    2.3137719    1.3032478 
H    -1.6142599    2.6468494   -0.7541410 
C     1.4418070   -0.4212055   -2.3692006 
C     1.1600139   -1.8351194   -1.8181211 
H     2.5297859   -0.3089105   -2.5712696 
H     0.9374049   -0.3071402   -3.3565570 
C    -0.3289426   -2.0956712   -1.6206320 
O    -1.2763113   -1.6175540   -2.5229125 
O    -0.7565463   -2.8402782   -0.5292312 
H    -1.7631628   -2.9305169   -0.5755773 
N     1.7608409   -2.8194824   -2.7344202 
H     1.6193271   -1.9347810   -0.8065590 
H     2.8036193   -2.7335248   -2.7002237 
H     1.5371866   -3.7865484   -2.3967573 
