24
Energy =
C    -0.5850821    2.1169852   -0.3517220 
C     0.1699189    2.4256336    0.7275300 
C     1.3778613    1.8404522    0.8982913 
C    -0.1265982    1.2326944   -1.2740586 
C     1.0960296    0.6519066   -1.1171138 
C     1.8419857    0.9531265   -0.0181948 
O    -0.3004378    3.3375567    1.6675764 
H    -0.0043539    4.2789818    1.4349510 
H    -0.7497134    0.9814666   -2.1304903 
H     2.8102500    0.4842113    0.1366931 
H     1.9636624    2.0831788    1.7781903 
H    -1.5616417    2.5760591   -0.4644107 
C     1.5998442   -0.3542404   -2.1284143 
C     1.1423009   -1.7913204   -1.7795829 
H     2.7119267   -0.3168708   -2.1663062 
H     1.2536928   -0.0742300   -3.1483543 
C    -0.3804450   -1.9493413   -1.8014077 
O    -1.0497978   -2.2384730   -0.6181793 
O    -1.1314209   -1.7409284   -2.9609710 
H    -0.5416446   -1.6072533   -3.7670686 
N     1.8092746   -2.7561351   -2.6730184 
H     1.4385426   -2.0190905   -0.7277433 
H     1.6813639   -2.4837377   -3.6764756 
H     2.8395403   -2.7579488   -2.4831707 
