24
Energy =
C     0.2980884    2.0227308    0.4898907 
C     0.0591030    2.7581695   -0.6194011 
C     0.4543185    2.3042423   -1.8309268 
C     0.9457737    0.8332822    0.3928222 
C     1.3555490    0.3728276   -0.8227458 
C     1.1010007    1.1153383   -1.9365364 
O    -0.6016536    3.9776817   -0.5146207 
H     0.0604357    4.7348184   -0.3866808 
H     1.1208513    0.2437201    1.2906398 
H     1.4072310    0.7618521   -2.9175705 
H     0.2420756    2.8982305   -2.7133864 
H    -0.0424543    2.3906484    1.4521582 
C     2.0680254   -0.9601535   -0.9382740 
C     1.1069770   -2.1747403   -0.9248472 
H     2.7984432   -1.0642611   -0.1033404 
H     2.6771447   -0.9917360   -1.8684513 
C     0.4191338   -2.3420435    0.4209689 
O     1.1186683   -2.9032684    1.4825655 
O    -0.8548101   -1.8362226    0.6514175 
H    -1.1360560   -2.0804188    1.5915965 
N     0.1503491   -2.1126015   -2.0441168 
H     1.7193478   -3.0970516   -1.0461489 
H    -0.5421898   -1.3431868   -1.8749072 
H     0.6519675   -1.9020128   -2.9371826 
