24
Energy =
C    -0.1167417    2.4865391   -0.8970897 
C     0.3766764    2.7551452    0.3331686 
C     1.2807940    1.9086389    0.8943178 
C     0.2860516    1.3810541   -1.5738092 
C     1.1988488    0.5355532   -1.0207644 
C     1.6875205    0.8023714    0.2216342 
O    -0.0635523    3.9039214    0.9979842 
H     0.3483815    4.0338867    1.9157443 
H    -0.1274616    1.1782223   -2.5584545 
H     2.4007398    0.1258087    0.6852250 
H     1.6771148    2.1113612    1.8833316 
H    -0.8410189    3.1676461   -1.3307789 
C     1.6327972   -0.7103604   -1.7621707 
C     0.7431335   -1.9181020   -1.3971398 
H     2.6986644   -0.9310405   -1.5328541 
H     1.5874798   -0.5228528   -2.8599622 
C     0.8981596   -3.0689193   -2.3901163 
O    -0.2257794   -3.5360605   -3.0579542 
O     2.1287980   -3.6755946   -2.6415751 
H     2.8763180   -3.2495578   -2.1167211 
N     1.0159903   -2.3276599   -0.0059625 
H    -0.3259628   -1.6051074   -1.4824506 
H     0.3398134   -3.0798463    0.2727885 
H     1.9736432   -2.7451451    0.0685594 
