24
Energy =
C     2.0726660    1.5113970    0.7494970 
C     1.0169765    2.3533137    0.8273003 
C     0.0322132    2.2914425   -0.0980569 
C     2.1535252    0.6102204   -0.2622664 
C     1.1758045    0.5536089   -1.2092654 
C     0.1087367    1.3971996   -1.1175755 
O     0.9376989    3.2741772    1.8672275 
H     1.3592776    4.1570399    1.6002201 
H     3.0035937   -0.0663295   -0.3042819 
H    -0.7036999    1.3408070   -1.8429174 
H    -0.8212341    2.9547732   -0.0028866 
H     2.8466670    1.5595467    1.5083673 
C     1.2537705   -0.4664870   -2.3265118 
C     0.4253189   -1.7282859   -2.0206727 
H     2.3132200   -0.7562326   -2.5026358 
H     0.9046422   -0.0228639   -3.2876046 
C    -1.0692097   -1.3979259   -1.9973967 
O    -1.7357099   -1.1399585   -3.1891282 
O    -1.7592020   -1.2155174   -0.7977752 
H    -1.1814189   -1.3820638    0.0140898 
N     0.7441808   -2.7395401   -3.0423259 
H     0.7059462   -2.1223289   -1.0163409 
H     1.6839372   -3.1533088   -2.8378104 
H     0.0576534   -3.5305177   -2.9808925 
