24
Energy =
C    -0.1338780    2.6288820   -0.5478164 
C     0.3731859    2.6810638    0.7054808 
C     1.2417174    1.7314194    1.1221014 
C     0.2131052    1.6175033   -1.3813696 
C     1.0617248    0.6331312   -0.9613072 
C     1.5927994    0.7168995    0.2932923 
O     0.0182030    3.7229013    1.5586500 
H    -0.8013963    3.4790875    2.1038447 
H    -0.1862141    1.6135218   -2.3918632 
H     2.3230228   -0.0059805    0.6416232 
H     1.6650876    1.7950868    2.1193394 
H    -0.8108943    3.4069213   -0.8858910 
C     1.4653544   -0.4932905   -1.9071840 
C     0.5746724   -1.7743457   -1.8680360 
H     2.5215792   -0.7832537   -1.7077878 
H     1.4668989   -0.1063851   -2.9507022 
C     0.7398856   -2.6305771   -0.6031394 
O     1.6638614   -2.2895172    0.3791412 
O     0.0109417   -3.8130986   -0.4353209 
H    -0.5389837   -4.0584744   -1.2496011 
N    -0.8422202   -1.5050192   -2.2107248 
H     0.9660479   -2.4159743   -2.6867145 
H    -1.5002093   -1.9646140   -1.5383148 
H    -1.0778169   -0.4920346   -2.1956007 
