24
Energy =
C     1.5477248    2.5081095    0.2750377 
C     0.2492766    2.7213074    0.5803744 
C    -0.7075827    1.9308146    0.0285865 
C     1.9002999    1.5085166   -0.5719117 
C     0.9491907    0.6933483   -1.1137780 
C    -0.3613421    0.9297609   -0.8204863 
O    -0.0740791    3.7628230    1.4563083 
H    -1.0661513    3.8492433    1.6493132 
H     2.9525160    1.3667405   -0.8065424 
H    -1.1479047    0.3302043   -1.2617607 
H    -1.7534459    2.1015895    0.2603474 
H     2.3012595    3.1518704    0.7159056 
C     1.3664191   -0.3995424   -2.0923461 
C     0.8508275   -1.8423297   -1.8147871 
H     2.4761219   -0.4481146   -2.1706688 
H     1.0146397   -0.0893811   -3.1010428 
C     1.3421949   -2.5567467   -0.5396472 
O     1.1169263   -3.9246719   -0.4456341 
O     2.0449391   -1.9501223    0.5009912 
H     2.1101821   -0.9580970    0.4034736 
N    -0.6164094   -1.8853931   -1.9589654 
H     1.2927227   -2.4809729   -2.6180466 
H    -0.8672954   -1.7496470   -2.9672940 
H    -0.9652809   -2.8451955   -1.7109702 
