24
Energy =
C    -0.0558637    2.5334406   -0.6403934 
C     0.8614776    2.7022503    0.3384584 
C     1.8655597    1.8079869    0.4875220 
C     0.0255894    1.4646581   -1.4730952 
C     1.0310399    0.5567472   -1.3279046 
C     1.9515574    0.7346275   -0.3394194 
O     0.7753350    3.7995479    1.1887567 
H     0.2281955    3.5705505    2.0118446 
H    -0.7341245    1.3210842   -2.2376651 
H     2.7612391    0.0213009   -0.2062321 
H     2.5978897    1.9617673    1.2727144 
H    -0.8579604    3.2560508   -0.7454773 
C     1.1279794   -0.6451542   -2.2454669 
C     0.5522567   -1.9464419   -1.6087923 
H     2.2042346   -0.7809291   -2.4964402 
H     0.6165062   -0.4515890   -3.2158359 
C    -0.9867955   -1.9133892   -1.5317152 
O    -1.5868549   -0.8361197   -0.9070557 
O    -1.8402750   -2.9140466   -1.9645472 
H    -1.3103624   -3.7276108   -2.1911442 
N     1.1796458   -3.1299609   -2.2575091 
H     0.8380210   -1.9736450   -0.5309558 
H     0.5481109   -3.8670937   -2.6086952 
H     1.8102182   -2.8891400   -3.0640846 
