24
Energy =
C     0.5616075    2.5806515   -1.1278220 
C     0.3477545    2.7402965    0.2058237 
C     0.6184148    1.7211795    1.0526562 
C     1.0467203    1.4065142   -1.6055692 
C     1.3300597    0.3837503   -0.7519959 
C     1.1045584    0.5456176    0.5807101 
O    -0.1504140    3.9372253    0.7305351 
H    -0.3329320    4.6495143    0.0320814 
H     1.2033471    1.2919119   -2.6755723 
H     1.3023103   -0.2673530    1.2746519 
H     0.4359531    1.8567908    2.1131345 
H     0.3418588    3.3903477   -1.8154796 
C     1.8495669   -0.9333455   -1.2853377 
C     0.6976459   -1.8966737   -1.6260298 
H     2.5284068   -1.4112948   -0.5439674 
H     2.4681621   -0.7490353   -2.1930811 
C     1.2095878   -3.0795701   -2.4311207 
O     1.9375376   -4.0926443   -1.8183200 
O     1.0125036   -3.1213327   -3.8033387 
H     1.4285550   -3.9713877   -4.1637190 
N     0.0229194   -2.3112453   -0.3814193 
H    -0.0321774   -1.3714754   -2.2866962 
H    -0.8304416   -2.8659529   -0.6303628 
H     0.6464522   -2.9666867    0.1507459 
