24
Energy =
C     0.8363762    1.9280630    0.9012843 
C     0.7873142    2.9036385   -0.0341661 
C     1.0416978    2.6119462   -1.3309386 
C     1.1361832    0.6546436    0.5420651 
C     1.3992817    0.3530704   -0.7604149 
C     1.3421526    1.3399523   -1.6983360 
O     0.4772073    4.2083045    0.3377053 
H    -0.5213460    4.3690375    0.2668707 
H     1.1533968   -0.1247744    1.2999167 
H     1.5330365    1.1177203   -2.7453242 
H     1.0016558    3.4051753   -2.0691915 
H     0.6294367    2.1716065    1.9374633 
C     1.7118759   -1.0709808   -1.1677222 
C     0.4245663   -1.8751854   -1.4266928 
H     2.3058048   -1.5647744   -0.3690708 
H     2.3514796   -1.0654469   -2.0794756 
C     0.7192579   -3.1301906   -2.2416088 
O     0.7541306   -3.0464027   -3.6215444 
O     1.0373037   -4.3402712   -1.6491039 
H     0.9218982   -4.2094747   -0.6596108 
N    -0.2489033   -2.1450924   -0.1404874 
H    -0.2522419   -1.2607429   -2.0684830 
H    -1.1982181   -2.5802840   -0.2800148 
H     0.3410629   -2.6718636    0.5417846 
