24
Energy =
C     0.3362807    1.9372414    0.7889856 
C     0.0842469    2.8351975   -0.1907078 
C     0.4446600    2.5643076   -1.4665239 
C     0.9472142    0.7611649    0.4945505 
C     1.3175073    0.4830252   -0.7861667 
C     1.0550428    1.3897976   -1.7686805 
O    -0.5420671    4.0392675    0.1150601 
H    -1.5480609    3.9524333    0.0218499 
H     1.1292667    0.0370757    1.2853845 
H     1.3319914    1.1836054   -2.7995655 
H     0.2410342    3.2963860   -2.2404422 
H     0.0429620    2.1669342    1.8080038 
C     1.9801701   -0.8357535   -1.1190277 
C     0.9402125   -1.9558938   -1.3137934 
H     2.6899177   -1.1230738   -0.3108274 
H     2.5975076   -0.7250835   -2.0394497 
C     1.5642856   -3.1667425   -1.9870977 
O     2.5935743   -3.8693615   -1.3702445 
O     1.1263206   -3.5614474   -3.2436719 
H     1.6507364   -4.3785261   -3.5308770 
N     0.3351977   -2.2869246   -0.0082691 
H     0.1493599   -1.6007847   -2.0178953 
H    -0.4528569   -2.9618937   -0.1600813 
H     1.0389396   -2.7952038    0.5817571 
