24
Energy =
C     1.8261987    1.2770775    1.1369150 
C     0.6628759    1.9544927    1.3278336 
C    -0.2595524    1.9901003    0.3398012 
C     2.0627051    0.6442765   -0.0403598 
C     1.1405801    0.6911123   -1.0406363 
C    -0.0272878    1.3621095   -0.8406412 
O     0.3903077    2.6207499    2.5272961 
H     1.1183670    2.5323164    3.2274494 
H     2.9933510    0.0988182   -0.1745342 
H    -0.7895916    1.3841678   -1.6176838 
H    -1.1897545    2.5214059    0.5104560 
H     2.5670749    1.2379661    1.9273660 
C     1.3918018   -0.0327693   -2.3460901 
C     0.8072378   -1.4598056   -2.3333316 
H     2.4856149   -0.0801624   -2.5440455 
H     0.9621434    0.5438718   -3.1960218 
C    -0.7160383   -1.4365476   -2.2326349 
O    -1.3235572   -1.7936528   -1.0366635 
O    -1.5155397   -1.0084426   -3.2912131 
H    -0.9603863   -0.8487426   -4.1197989 
N     1.2605448   -2.1588601   -3.5480054 
H     1.1707694   -2.0009093   -1.4258452 
H     2.2912479   -2.3326642   -3.4802090 
H     0.8150724   -3.1085527   -3.5857196 
