24
Energy =
C     0.4693321    1.4359900    1.2287577 
C     0.1809531    2.5536926    0.5243770 
C     0.4411994    2.5933694   -0.8096144 
C     1.0172469    0.3575126    0.6139383 
C     1.2867361    0.3940059   -0.7203087 
C     0.9901359    1.5183539   -1.4296650 
O    -0.3813260    3.6441974    1.1950270 
H    -0.5812692    4.4386074    0.5965676 
H     1.2366135   -0.5336071    1.1963970 
H     1.1846648    1.5629831   -2.4990582 
H     0.2084120    3.4832261   -1.3847286 
H     0.2524904    1.4161949    2.2912825 
C     1.8802615   -0.8164798   -1.4094341 
C     0.8085526   -1.8651173   -1.7641963 
H     2.6461742   -1.2758306   -0.7474341 
H     2.4184382   -0.5227106   -2.3401252 
C    -0.1864634   -1.3371003   -2.7931693 
O    -1.5257834   -1.7000529   -2.7058025 
O     0.2247934   -0.5189015   -3.8412800 
H    -0.5723875   -0.3294911   -4.4345344 
N     1.4916122   -3.0792911   -2.2437964 
H     0.2139987   -2.1090019   -0.8523401 
H     1.9735574   -3.5446490   -1.4390678 
H     0.7753036   -3.7664176   -2.5840456 
