24
Energy =
C    -0.6340854    1.9227335   -1.7101259 
C    -0.8309573    2.4574895   -0.4836378 
C    -0.1015893    2.0229545    0.5693377 
C     0.3009539    0.9552161   -1.8898731 
C     1.0429859    0.5147530   -0.8353930 
C     0.8358261    1.0559239    0.3979344 
O    -1.7887237    3.4502249   -0.3039169 
H    -1.3771133    4.3700506   -0.4165694 
H     0.4503654    0.5355860   -2.8818089 
H     1.4135258    0.7188117    1.2540756 
H    -0.2804140    2.4531868    1.5485674 
H    -1.2333133    2.2731258   -2.5439184 
C     2.0804422   -0.5684769   -1.0403806 
C     1.4383714   -1.9755046   -1.2163065 
H     2.8090452   -0.5959611   -0.1990719 
H     2.6849840   -0.2975637   -1.9384776 
C     2.4384025   -2.9365453   -1.8747036 
O     3.0197838   -2.5303898   -3.0637387 
O     2.7774907   -4.2000344   -1.4171737 
H     2.2070717   -4.4427646   -0.6351797 
N     0.7954959   -2.4085524    0.0504203 
H     0.6369784   -1.9108549   -1.9890822 
H     1.0087236   -3.3593302    0.3938877 
H     0.9393363   -1.7409283    0.8482711 
