24
Energy =
C     0.8953187    1.5907527    1.2959342 
C     0.1651396    2.5413785    0.6690348 
C     0.0229028    2.5086999   -0.6761425 
C     1.4809567    0.5980610    0.5793729 
C     1.3418161    0.5576262   -0.7755314 
C     0.6052968    1.5186212   -1.3997489 
O    -0.4332574    3.5572340    1.4073302 
H    -1.3731632    3.2951621    1.6835813 
H     2.0616662   -0.1606439    1.0971094 
H     0.4821999    1.5022117   -2.4799774 
H    -0.5569527    3.2837665   -1.1658460 
H     1.0096251    1.6332887    2.3739419 
C     1.9758045   -0.5553693   -1.5803810 
C     0.9562912   -1.6653396   -1.9356180 
H     2.8424629   -0.9897722   -1.0330656 
H     2.3993580   -0.1224877   -2.5164238 
C     1.5278556   -2.6412849   -2.9618032 
O     1.0812440   -2.5738002   -4.2763339 
O     2.5384496   -3.5495524   -2.6437042 
H     2.7689231   -3.5203111   -1.6633608 
N     0.4855491   -2.3568908   -0.7195238 
H     0.0802942   -1.2033374   -2.4501768 
H     1.2818112   -2.5643961   -0.0718483 
H    -0.1738990   -1.7323277   -0.1975427 
