24
Energy =
C    -0.8229737    1.8865963   -1.8248337 
C    -0.4029901    2.7809188   -0.9010987 
C     0.7270982    2.5297231   -0.1873426 
C    -0.1220294    0.7461972   -2.0465002 
C     1.0172265    0.4963959   -1.3444792 
C     1.4319366    1.3911285   -0.4051299 
O    -1.1511148    3.9462055   -0.7045279 
H    -0.7859597    4.5546335    0.0204337 
H    -0.4868514    0.0289105   -2.7771324 
H     2.3217060    1.1927708    0.1871427 
H     1.0656581    3.2344040    0.5645375 
H    -1.7330408    2.0915529   -2.3782262 
C     1.7814634   -0.7948145   -1.5625988 
C     1.3442471   -1.9694350   -0.6395498 
H     2.8683746   -0.6066058   -1.4176849 
H     1.6937908   -1.0949742   -2.6311349 
C     0.2364969   -1.6231118    0.3556099 
O     0.5629459   -1.1553212    1.6227742 
O    -1.1021387   -1.7147773   -0.0073631 
H    -1.6670256   -1.4161621    0.7776604 
N     1.0031653   -3.1326331   -1.4796759 
H     2.2193555   -2.2413670   -0.0043017 
H     0.8548200   -3.9640626   -0.8593626 
H     0.0737769   -2.9554434   -1.9348559 
