24
Energy =
C    -0.0381971    2.5259749   -1.5861962 
C     0.1383617    2.9902708   -0.3292025 
C     0.8176980    2.2505843    0.5751231 
C     0.4510746    1.3098626   -1.9389330 
C     1.1119350    0.5393327   -1.0256760 
C     1.3109743    1.0341390    0.2293326 
O    -0.3628029    4.2373651    0.0279356 
H    -1.3016677    4.1511853    0.4014483 
H     0.3144468    0.9630923   -2.9601213 
H     1.8797871    0.4713444    0.9617608 
H     0.9720055    2.6461037    1.5733585 
H    -0.5655474    3.1401433   -2.3089790 
C     1.6778689   -0.8157951   -1.4297349 
C     0.7635352   -2.0521340   -1.1632028 
H     2.6532313   -0.9721769   -0.9168605 
H     1.9201760   -0.7963151   -2.5153304 
C     0.7294801   -2.5312148    0.2878818 
O     0.3731894   -3.8461312    0.5618665 
O     1.0411107   -1.6949784    1.3515089 
H     0.9326413   -2.2146748    2.2142891 
N    -0.5835748   -1.9204172   -1.7697219 
H     1.2571346   -2.9075660   -1.6783273 
H    -1.3354682   -2.0733634   -1.0543272 
H    -0.7629111   -0.9822418   -2.1836684 
