24
Energy =
C    -0.3652758    2.2031312   -0.0041797 
C    -1.2119057    1.5385390    0.8146655 
C    -1.0627009    0.1985665    0.9908137 
C     0.6341266    1.5435712   -0.6428249 
C     0.7942009    0.2034325   -0.4621487 
C    -0.0670095   -0.4670852    0.3522634 
O    -2.2241604    2.2542161    1.4621317 
H    -2.8312705    1.6824731    2.0388083 
H     1.2935626    2.0958894   -1.3086917 
H     0.0334483   -1.5397056    0.4965364 
H    -1.7414941   -0.3434708    1.6401452 
H    -0.5026554    3.2695042   -0.1473378 
C     1.8905804   -0.5414503   -1.1929460 
C     1.4097387   -1.0577236   -2.5693292 
H     2.2313043   -1.3994141   -0.5719800 
H     2.7768805    0.1200930   -1.3186067 
C     1.0844437    0.0841229   -3.5316631 
O    -0.2442766    0.3619173   -3.8241198 
O     2.0713111    0.9191589   -4.0586705 
H     2.9976976    0.5780860   -3.8632697 
N     2.4035310   -1.9897683   -3.1336729 
H     0.4462775   -1.6060263   -2.4359873 
H     3.3732792   -1.6019861   -3.0613345 
H     2.3889839   -2.8850524   -2.5898374 
