24
Energy =
C     0.3352378    0.4558586    1.5320079 
C    -0.2864637    1.6160298    1.2215508 
C    -0.1440473    2.1427241   -0.0240677 
C     1.1001401   -0.1824219    0.6110226 
C     1.2538592    0.3451754   -0.6346625 
C     0.6206546    1.5092563   -0.9488493 
O    -1.0645992    2.2439316    2.1991417 
H    -1.5075840    3.1012954    1.8859797 
H     1.5858925   -1.1176961    0.8766932 
H     0.7166574    1.9367145   -1.9449387 
H    -0.6440189    3.0692752   -0.2855909 
H     0.2090203    0.0435677    2.5270499 
C     2.0862466   -0.3772526   -1.6719939 
C     1.2683278   -1.4427423   -2.4257559 
H     2.9557475   -0.8682865   -1.1807239 
H     2.5163471    0.3480298   -2.3997288 
C     0.1331522   -0.8312215   -3.2358994 
O     0.3803502    0.1874236   -4.1507005 
O    -1.1616158   -1.3073369   -3.0812687 
H    -1.7758496   -0.7924703   -3.6993412 
N     2.1914631   -2.2294328   -3.2626943 
H     0.7857389   -2.1199228   -1.6819400 
H     1.6554927   -2.9999443   -3.7310290 
H     2.5589818   -1.6212749   -4.0347200 
