24
Energy =
C     1.5387445    2.2602693    0.2345907 
C     0.3341766    2.8410669    0.0342727 
C    -0.5497991    2.2737137   -0.8288930 
C     1.8711292    1.1204886   -0.4228012 
C     0.9929645    0.5502825   -1.2940889 
C    -0.2221905    1.1329820   -1.4883387 
O     0.0297415    4.0174358    0.7264437 
H    -0.8985548    4.3787873    0.5371972 
H     2.8405916    0.6643825   -0.2370112 
H    -0.9420420    0.6767911   -2.1626600 
H    -1.5219923    2.7274219   -0.9889173 
H     2.2318476    2.7169349    0.9326282 
C     1.3557375   -0.7295201   -2.0249380 
C     0.6881032   -1.9780159   -1.4097270 
H     2.4602476   -0.8704895   -2.0263645 
H     1.0572552   -0.6408605   -3.0917818 
C     1.0679316   -2.1671562    0.0613264 
O     2.3722506   -1.9196438    0.4801872 
O     0.1658804   -2.7094771    0.9705991 
H     0.6126536   -2.7723701    1.8759896 
N    -0.7691794   -1.8969601   -1.6442878 
H     1.0971013   -2.8809193   -1.9195250 
H    -0.9752226   -2.2023273   -2.6240360 
H    -1.2660911   -2.5800981   -1.0194585 
