24
Energy =
C     0.7666856    1.8020603    1.0627678 
C     0.4140730    2.8128762    0.2354748 
C     0.5292310    2.6626317   -1.1042338 
C     1.2291675    0.6331362    0.5521628 
C     1.3485180    0.4740092   -0.7958607 
C     0.9919266    1.4968202   -1.6225186 
O    -0.0609110    4.0096294    0.7632269 
H    -1.0694199    3.9794665    0.8679774 
H     1.5023701   -0.1724106    1.2288276 
H     1.0686786    1.3882708   -2.7023593 
H     0.2468149    3.4821925   -1.7563525 
H     0.6766698    1.9368469    2.1351914 
C     1.8399257   -0.8391877   -1.3668364 
C     0.7157713   -1.8908911   -1.4430802 
H     2.6690319   -1.2247267   -0.7341567 
H     2.2768789   -0.6937320   -2.3818707 
C    -0.4038290   -1.4578236   -2.4006469 
O    -0.0887630   -0.8600776   -3.6170939 
O    -1.7484225   -1.6824538   -2.0974332 
H    -1.8682697   -2.1576221   -1.2155840 
N     1.3112879   -3.1723638   -1.8545891 
H     0.2741334   -2.0054282   -0.4265558 
H     1.9057490   -3.5437348   -1.0763130 
H     0.5526469   -3.8813392   -2.0017416 
