24
Energy =
C     0.1434215    1.5058583    1.1627632 
C     0.3145805    2.6666658    0.4907627 
C     1.0345893    2.6750375   -0.6628112 
C     0.6883573    0.3542763    0.6947773 
C     1.4177757    0.3584222   -0.4540907 
C     1.5808067    1.5256710   -1.1360147 
O    -0.2615688    3.8325948    1.0055558 
H    -0.0932021    4.6637674    0.4502229 
H     0.5282598   -0.5748633    1.2363603 
H     2.1484266    1.5471059   -2.0629783 
H     1.1712842    3.6015408   -1.2083329 
H    -0.4399620    1.5079210    2.0777860 
C     2.0100713   -0.9285506   -0.9869325 
C     0.9736309   -1.7442875   -1.7876197 
H     2.4041078   -1.5439802   -0.1468098 
H     2.8908846   -0.7000870   -1.6293533 
C     1.6385305   -2.8491383   -2.6142357 
O     2.7883210   -3.4718105   -2.1421306 
O     1.0854444   -3.2864618   -3.8178720 
H     0.2217973   -2.8127276   -4.0370620 
N    -0.0370707   -2.2802942   -0.8568941 
H     0.4816665   -1.0559902   -2.5135719 
H    -0.8133324   -2.7251981   -1.4035011 
H     0.3903429   -3.0459346   -0.2802951 
