24
Energy =
C    -0.8513795    2.0225015   -1.2372176 
C    -0.4863100    2.5697489   -0.0549737 
C     0.6046685    2.1060948    0.5973529 
C    -0.1193145    1.0149922   -1.7772810 
C     0.9894080    0.5533410   -1.1337237 
C     1.3424269    1.1000174    0.0629242 
O    -1.2397558    3.6022477    0.4950183 
H    -0.8861067    4.5033639    0.1933967 
H    -0.4290918    0.5795703   -2.7240987 
H     2.2085638    0.7271519    0.6035537 
H     0.8751722    2.5408227    1.5532715 
H    -1.7370462    2.3926031   -1.7428846 
C     1.7933881   -0.5851859   -1.7215854 
C     1.2762143   -1.9527717   -1.2357298 
H     2.8691456   -0.4797214   -1.4539239 
H     1.7491097   -0.5368713   -2.8331668 
C     1.8992732   -3.0834268   -2.0371841 
O     1.0914976   -3.9549737   -2.7565960 
O     3.2783777   -3.2531739   -2.0616896 
H     3.4993558   -4.0531747   -2.6414827 
N     1.5393775   -2.0873737    0.2090462 
H     0.1775047   -2.0112603   -1.4227774 
H     1.0907135   -2.9688655    0.5557776 
H     2.5705649   -2.2065165    0.3617647 
