24
Energy =
C    -0.7087672    1.9728212   -1.7348249 
C    -0.6418629    2.6662634   -0.5761727 
C     0.2818001    2.3228491    0.3603099 
C     0.1417183    0.9416537   -1.9693142 
C     1.0741726    0.5960955   -1.0389650 
C     1.1347036    1.2918689    0.1309539 
O    -1.5318345    3.7251275   -0.3738163 
H    -1.4330177    4.1812950    0.5265546 
H     0.0646476    0.3870491   -2.9005454 
H     1.8621205    1.0209889    0.8928694 
H     0.3379273    2.8691735    1.2958426 
H    -1.4563939    2.2510660   -2.4697493 
C     2.0190105   -0.5633882   -1.2953693 
C     1.3958858   -1.9297319   -0.9357224 
H     2.9613445   -0.4259236   -0.7187825 
H     2.3166906   -0.5692844   -2.3664739 
C     1.0637750   -2.0379712    0.5529532 
O    -0.0016757   -2.8163023    0.9941564 
O     1.9034111   -1.4612303    1.5016829 
H     1.5569886   -1.6992529    2.4231509 
N     0.2324457   -2.1716315   -1.8117612 
H     2.1624195   -2.7178921   -1.1137127 
H     0.5720049   -2.3893283   -2.7774803 
H    -0.2802069   -3.0278842   -1.4871484 
