24
Energy =
C     0.9767940    1.9675373    0.8596988 
C     0.3123310    2.8456111    0.0623583 
C     0.1527662    2.5667708   -1.2514418 
C     1.4805093    0.8195238    0.3383086 
C     1.3290478    0.5422367   -0.9852758 
C     0.6531046    1.4196852   -1.7771054 
O    -0.2179792    4.0371738    0.5665966 
H    -0.0637552    4.1750623    1.5592269 
H     1.9958636    0.1130466    0.9845621 
H     0.5072971    1.2103766   -2.8338358 
H    -0.3840207    3.2726175   -1.8765275 
H     1.1006985    2.1802177    1.9156433 
C     1.8715569   -0.7483833   -1.5601522 
C     0.9127584   -1.9284537   -1.2927965 
H     2.8729616   -0.9576375   -1.1234329 
H     2.0339766   -0.6311884   -2.6566459 
C     1.1861643   -3.1151300   -2.2177402 
O     0.1604410   -3.5893032   -3.0246413 
O     2.4308624   -3.7421280   -2.2760514 
H     3.0981706   -3.3133881   -1.6542223 
N     0.9738971   -2.2920579    0.1373170 
H    -0.1259775   -1.6021076   -1.5466234 
H     0.2271057   -2.9997212    0.3454420 
H     1.8873929   -2.7567036    0.3544091 
