24
Energy =
C    -0.1369901    2.3812868   -1.4109599 
C     0.2844001    2.8816803   -0.2272641 
C     1.1398732    2.1703263    0.5421077 
C     0.3056495    1.1702627   -1.8352248 
C     1.1773349    0.4517567   -1.0730237 
C     1.5881546    0.9590890    0.1235856 
O    -0.1685709    4.1249236    0.2024636 
H     0.4548466    4.8602605   -0.1107373 
H    -0.0505725    0.7727667   -2.7816740 
H     2.2686793    0.3952304    0.7574735 
H     1.4544744    2.5756944    1.4977010 
H    -0.8373030    2.9530095   -2.0104922 
C     1.6648512   -0.9066545   -1.5415240 
C     0.6750480   -2.0440649   -1.2068334 
H     2.6559652   -1.1345615   -1.0882839 
H     1.8320708   -0.8807577   -2.6402638 
C     0.4751307   -2.2129147    0.3004072 
O     1.5518216   -2.0642722    1.1703185 
O    -0.7410544   -2.6478249    0.8152296 
H    -0.6616539   -2.7166671    1.8214329 
N    -0.5842934   -1.8117071   -1.9422238 
H     1.1260448   -3.0062741   -1.5409191 
H    -0.4469927   -2.0741893   -2.9456191 
H    -1.3328654   -2.4482063   -1.5719285 
