24
Energy =
C     0.6649213    1.4979766    1.2004056 
C     0.3488774    2.5999850    0.4821625 
C     0.5132051    2.6031384   -0.8607664 
C     1.1408666    0.3907763    0.5762057 
C     1.3098987    0.3860120   -0.7759371 
C     0.9892991    1.5001558   -1.4920658 
O    -0.1385874    3.7324794    1.1261970 
H    -1.1511564    3.7054227    1.1800912 
H     1.3848169   -0.4897855    1.1650661 
H     1.1065082    1.5143625   -2.5733964 
H     0.2601446    3.4948655   -1.4241459 
H     0.5343188    1.5105288    2.2774061 
C     1.8176253   -0.8571341   -1.4749905 
C     0.6964370   -1.8871417   -1.7101377 
H     2.6247578   -1.3173222   -0.8646530 
H     2.2828010   -0.6024596   -2.4552529 
C    -0.3767782   -1.3529584   -2.6536785 
O    -1.7136086   -1.6544824   -2.4186968 
O    -0.0428236   -0.5843757   -3.7647690 
H    -0.8872930   -0.3838896   -4.2842793 
N     1.3068267   -3.1244185   -2.2269248 
H     0.1834611   -2.1018318   -0.7431286 
H     1.8510686   -3.5866886   -1.4610830 
H     0.5481401   -3.8007105   -2.4874901 
