24
Energy =
C     0.4481263    2.0859034    0.4277996 
C     0.1638835    2.8269248   -0.6667509 
C     0.4800812    2.3650373   -1.8981594 
C     1.0500271    0.8756757    0.2942791 
C     1.3730791    0.4021955   -0.9421839 
C     1.0787011    1.1550394   -2.0397444 
O    -0.4497945    4.0665282   -0.5241047 
H    -1.4592214    3.9716937   -0.5595325 
H     1.2470206    0.2737767    1.1794769 
H     1.3135618    0.7909450   -3.0369717 
H     0.2481938    2.9714147   -2.7672729 
H     0.1819546    2.4680862    1.4082078 
C     2.0323122   -0.9555435   -1.1018102 
C     1.0442643   -2.1373586   -0.9997229 
H     2.8371221   -1.0755482   -0.3424779 
H     2.5391910   -1.0152045   -2.0904373 
C     0.5517423   -2.3542759    0.4228976 
O    -0.4878885   -1.5965321    0.9499181 
O     1.2105028   -3.2487046    1.2510765 
H     0.7322970   -3.2736213    2.1430138 
N    -0.0474484   -1.9692231   -1.9760164 
H     1.6083643   -3.0646492   -1.2545431 
H    -0.5958293   -2.8606932   -2.0172320 
H    -0.7198605   -1.2475607   -1.6179752 
