24
Energy =
C    -0.4018071    2.3478532   -1.0520000 
C    -0.4006168    2.5022679    0.2921035 
C     0.3673549    1.7001641    1.0650542 
C     0.3616119    1.3845864   -1.6283734 
C     1.1404654    0.5756179   -0.8567440 
C     1.1338855    0.7355672    0.4958973 
O    -1.1858187    3.4898001    0.8787088 
H    -2.1026448    3.1253739    1.1130270 
H     0.3464457    1.2673218   -2.7091153 
H     1.7368413    0.0890489    1.1282216 
H     0.3621103    1.8373780    2.1407391 
H    -1.0172470    3.0017043   -1.6609044 
C     1.9746654   -0.5134193   -1.4939797 
C     1.1838278   -1.8306808   -1.6159410 
H     2.9021237   -0.6861537   -0.9021666 
H     2.3128953   -0.1799104   -2.5015344 
C     1.9177756   -2.8256058   -2.4970194 
O     3.1207556   -3.3868027   -2.0832175 
O     1.3968794   -3.1647778   -3.7380613 
H     2.0182475   -3.8280262   -4.1845610 
N     0.9169010   -2.3675444   -0.2674877 
H     0.2184328   -1.6277986   -2.1382033 
H     0.3206526   -3.2254878   -0.3520110 
H     1.8197035   -2.6839942    0.1637132 
