24
Energy =
C     0.4642679    2.0840004    0.8243939 
C     0.1525417    2.8655791   -0.2341967 
C     0.4323476    2.4474385   -1.4899115 
C     1.0689302    0.8840396    0.6313260 
C     1.3653878    0.4591626   -0.6300154 
C     1.0375856    1.2491534   -1.6909891 
O    -0.4630239    4.0965326   -0.0312540 
H     0.2284982    4.8322575    0.0586223 
H     1.3059575    0.2636232    1.4922215 
H     1.2458787    0.9202881   -2.7055245 
H     0.1593001    3.0759053   -2.3305176 
H     0.2185059    2.4225569    1.8254427 
C     2.0312972   -0.8858866   -0.8554841 
C     1.0147250   -2.0204654   -1.1114325 
H     2.6675949   -1.1479266    0.0197846 
H     2.7222739   -0.8161404   -1.7234471 
C     0.1315644   -2.2907155    0.1051804 
O     0.6622714   -2.1989208    1.3887170 
O    -1.1669901   -2.7628103   -0.0480870 
H    -1.5743221   -2.9070745    0.8669854 
N     0.2442389   -1.7056476   -2.3304341 
H     1.5795827   -2.9688137   -1.2628481 
H     0.8357675   -1.9030269   -3.1701596 
H    -0.5868257   -2.3438541   -2.3984119 
