24
Energy =
C     0.5419656    1.5368294    1.2789344 
C     0.0805511    2.6038875    0.5739711 
C     0.2283497    2.6309717   -0.7702217 
C     1.1492681    0.5064154    0.6384182 
C     1.3061389    0.5362334   -0.7140042 
C     0.8363837    1.6041525   -1.4160916 
O    -0.5482267    3.6828251    1.2044818 
H    -0.6309693    3.5890220    2.2106519 
H     1.5078885   -0.3421124    1.2154929 
H     0.9372428    1.6428742   -2.4986696 
H    -0.1497758    3.4835197   -1.3246483 
H     0.4240265    1.5055885    2.3559004 
C     1.9654921   -0.6238154   -1.4293526 
C     0.9764876   -1.7765353   -1.6922056 
H     2.8158342   -0.9946710   -0.8163705 
H     2.4125111   -0.2935234   -2.3955395 
C    -0.1411445   -1.3573365   -2.6583589 
O     0.1579715   -0.5872853   -3.7781659 
O    -1.4619292   -1.7680659   -2.4659136 
H    -1.5674040   -2.3490239   -1.6479909 
N     1.7356920   -2.9248920   -2.2130145 
H     0.5058272   -2.0621512   -0.7234867 
H     2.3329855   -3.3202526   -1.4488865 
H     1.0725771   -3.6901664   -2.4858897 
