24
Energy =
C    -0.0163575    2.2562438   -1.9940091 
C     0.3808842    2.9627284   -0.9116868 
C     1.2029540    2.3843497    0.0044105 
C     0.4039884    0.9789037   -2.1728613 
C     1.2342968    0.3976403   -1.2634988 
C     1.6252508    1.1061556   -0.1687953 
O    -0.0696578    4.2782389   -0.7656521 
H     0.2580038    4.7359505    0.0783708 
H     0.0664720    0.4204113   -3.0431329 
H     2.2768355    0.6545478    0.5752489 
H     1.5224024    2.9417341    0.8786536 
H    -0.6790207    2.7266061   -2.7122309 
C     1.6862312   -1.0356781   -1.4450700 
C     0.7651793   -2.0316242   -0.6980189 
H     2.7282319   -1.1416166   -1.0694019 
H     1.7153313   -1.3015788   -2.5269348 
C    -0.6674289   -1.9794837   -1.2043311 
O    -1.7192359   -1.8783027   -0.3002673 
O    -0.9507507   -2.0068009   -2.5662973 
H    -1.9552343   -2.0330427   -2.6806611 
N     1.2983213   -3.4074328   -0.7985153 
H     0.7066782   -1.7254804    0.3738802 
H     2.2048826   -3.4573128   -1.3201380 
H     1.4691646   -3.7942497    0.1594384 
