24
Energy =
C     1.0135163    1.6220308    1.1297902 
C     0.5418987    2.6631035    0.4071141 
C     0.4595827    2.5596693   -0.9462081 
C     1.4076883    0.4793333    0.5134683 
C     1.3376859    0.3740661   -0.8422354 
C     0.8531575    1.4196730   -1.5682276 
O     0.1492089    3.8245160    1.0795774 
H    -0.2102264    4.5521958    0.4707695 
H     1.7749693   -0.3502920    1.1118090 
H     0.7674091    1.3464121   -2.6506255 
H     0.0742647    3.3859235   -1.5341606 
H     1.0664246    1.7153736    2.2089622 
C     1.7528917   -0.9090773   -1.5312342 
C     0.6115781   -1.9534336   -1.5461686 
H     2.6379708   -1.3355380   -1.0092938 
H     2.0737532   -0.7010288   -2.5777812 
C    -0.6155182   -1.4248881   -2.2798831 
O    -0.5539218   -1.1321963   -3.6389281 
O    -1.7953426   -1.1903808   -1.5858778 
H    -2.4923726   -0.8442483   -2.2323313 
N     1.0963722   -3.2471146   -2.0894970 
H     0.2702029   -2.1283509   -0.4997601 
H     0.5856605   -3.5028036   -2.9702446 
H     2.1098227   -3.2222319   -2.3512258 
