24
Energy =
C    -0.5446402    2.2115859   -1.1122483 
C    -0.2024291    2.6257519    0.1294123 
C     0.7850511    1.9946006    0.8055074 
C     0.1066648    1.1683521   -1.6868158 
C     1.1092922    0.5350136   -1.0166963 
C     1.4411378    0.9506948    0.2376613 
O    -0.8742768    3.6934804    0.7157668 
H    -0.4027308    4.5679028    0.5125849 
H    -0.1815944    0.8432469   -2.6836710 
H     2.2250806    0.4443147    0.7961694 
H     1.0380065    2.3280116    1.8061613 
H    -1.3468289    2.7180983   -1.6387885 
C     1.8203405   -0.6417488   -1.6472281 
C     1.0395011   -1.9594792   -1.4675422 
H     2.8387730   -0.7689299   -1.2137208 
H     1.9734766   -0.4383010   -2.7310665 
C     1.6443121   -3.0727332   -2.3131050 
O     0.8594573   -4.1590324   -2.6821290 
O     2.9781610   -3.0351010   -2.7072922 
H     3.1882443   -3.8761241   -3.2296001 
N     1.0178565   -2.3197631   -0.0374840 
H    -0.0015724   -1.8275782   -1.8456640 
H     0.3329948   -1.7012557    0.4571611 
H     0.6367951   -3.2920658    0.0666108 
