24
Energy =
C     0.1550139    2.0477484    0.4502965 
C    -0.1660242    2.7906063   -0.6321383 
C     0.2473315    2.3950073   -1.8651740 
C     0.8922947    0.9156567    0.3138940 
C     1.3108169    0.5142853   -0.9178186 
C     0.9798976    1.2615563   -2.0079653 
O    -0.9202947    3.9533525   -0.4486785 
H    -1.1326507    4.4479367   -1.3084454 
H     1.1254584    0.3201953    1.1942045 
H     1.2965415    0.9573287   -3.0023028 
H    -0.0089067    2.9829154   -2.7400912 
H    -0.1948492    2.3707200    1.4253373 
C     2.1232048   -0.7569752   -1.0803462 
C     1.2793552   -2.0570619   -1.0043985 
H     2.9247782   -0.7881746   -0.3075614 
H     2.6587507   -0.7432421   -2.0555108 
C     0.8772225   -2.4054822    0.4200609 
O    -0.2010427   -1.7831282    1.0409430 
O     1.6621480   -3.2742930    1.1630548 
H     1.2282894   -3.4015794    2.0684433 
N     0.1247336   -2.0051541   -1.9204763 
H     1.9292469   -2.9068568   -1.3163521 
H    -0.5949646   -1.3400540   -1.5450039 
H     0.4232495   -1.6562435   -2.8602653 
