24
Energy =
C    -0.0983726    1.6516516   -2.7559929 
C    -0.5637846    2.4823771   -1.7957255 
C    -0.1644334    2.3111577   -0.5073473 
C     0.7627370    0.6511218   -2.4419085 
C     1.1680784    0.4755788   -1.1536757 
C     0.6975601    1.3135284   -0.1879527 
O    -1.4484533    3.5019998   -2.1607148 
H    -1.7646142    4.0732350   -1.3841046 
H     1.1216652   -0.0085872   -3.2271009 
H     1.0029509    1.1846118    0.8476989 
H    -0.5349390    2.9693187    0.2712059 
H    -0.4267772    1.7976392   -3.7795352 
C     2.1199868   -0.6487608   -0.7958434 
C     1.4001752   -1.9411234   -0.3348846 
H     2.8069999   -0.3099725    0.0128557 
H     2.7771664   -0.8840072   -1.6619255 
C     0.6057023   -1.7379412    0.9487528 
O     1.2334914   -1.8861699    2.1804584 
O    -0.7191588   -1.3160795    0.9185966 
H    -1.0586827   -1.2587533    1.8691426 
N     0.5802973   -2.5115365   -1.4193028 
H     2.1828194   -2.6871232   -0.0685729 
H    -0.2485223   -1.8959465   -1.6009943 
H     1.1393933   -2.5743589   -2.3011424 
