24
Energy =
C     0.7956817    1.5277124    1.1088323 
C    -0.3107421    2.2151917    0.7447070 
C    -0.7734074    2.1303405   -0.5234350 
C     1.4531865    0.7630420    0.2001999 
C     0.9990808    0.6786137   -1.0820813 
C    -0.1234130    1.3654630   -1.4369235 
O    -0.9781351    3.0039203    1.6763628 
H    -0.6422907    3.9600528    1.6458348 
H     2.3364111    0.2095764    0.5113381 
H    -0.5102170    1.3001042   -2.4499300 
H    -1.6719014    2.6733349   -0.7950350 
H     1.1457329    1.5876608    2.1342594 
C     1.7247129   -0.1834892   -2.0966069 
C     1.2810017   -1.6677179   -2.0728176 
H     2.8210173   -0.1253122   -1.9108575 
H     1.5775824    0.2260106   -3.1203387 
C     1.5931912   -2.3481723   -0.7338109 
O     0.6401285   -2.3778154    0.2789773 
O     2.8658141   -2.8572793   -0.4630841 
H     3.4836831   -2.7801934   -1.2567396 
N    -0.1346594   -1.8031019   -2.4588629 
H     1.8812004   -2.2081417   -2.8378324 
H    -0.7548066   -1.3971439   -1.7177325 
H    -0.3203082   -1.2971956   -3.3557570 
