24
Energy =
C     0.7834315    2.3875226    0.1470611 
C    -0.4614795    2.6403843   -0.3178827 
C    -1.0185307    1.8226029   -1.2406120 
C     1.4818585    1.3212504   -0.3195613 
C     0.9340857    0.5019611   -1.2596843 
C    -0.3268752    0.7533464   -1.7109410 
O    -1.1738531    3.7352874    0.1612463 
H    -1.0143655    4.5493994   -0.4216790 
H     2.4753963    1.1197180    0.0736105 
H    -0.7904354    0.0992505   -2.4450289 
H    -2.0242682    2.0280759   -1.5906184 
H     1.2117632    3.0392435    0.9011964 
C     1.7004243   -0.7006656   -1.7648493 
C     1.4382405   -1.9454965   -0.8954003 
H     2.7928694   -0.4853952   -1.7790239 
H     1.4191270   -0.9073531   -2.8218359 
C     1.9509429   -3.2030557   -1.5793194 
O     1.0886626   -4.2646626   -1.8234432 
O     3.2790354   -3.2972251   -1.9776381 
H     3.4303560   -4.2048620   -2.3994441 
N     2.0483658   -1.7456332    0.4319481 
H     0.3369001   -2.0835610   -0.7806494 
H     1.7674434   -2.5373598    1.0587543 
H     3.0927011   -1.7985405    0.3447174 
