24
Energy =
C     2.1674125    1.5702805    0.6811610 
C     1.1527803    2.4573746    0.7966460 
C     0.1481800    2.4586822   -0.1092276 
C     2.1770574    0.6742456   -0.3383390 
C     1.1715203    0.6714021   -1.2572319 
C     0.1523439    1.5676911   -1.1344258 
O     1.1451565    3.3728822    1.8441196 
H     0.6416223    3.0001361    2.6422226 
H     2.9935680   -0.0399507   -0.4118257 
H    -0.6716511    1.5667823   -1.8473981 
H    -0.6567826    3.1779841    0.0000442 
H     2.9692506    1.5826783    1.4120218 
C     1.1660254   -0.3485656   -2.3762498 
C     0.4590631   -1.6534115   -1.9612021 
H     2.2119787   -0.5749909   -2.6792979 
H     0.6742307    0.0612021   -3.2885516 
C    -1.0269380   -1.4207603   -1.6688085 
O    -1.7830926   -0.6148669   -2.5149236 
O    -1.6543515   -2.0050181   -0.5676326 
H    -1.0378334   -2.6072556   -0.0416279 
N     0.6466808   -2.6387334   -3.0381673 
H     0.9331027   -2.0317459   -1.0259999 
H     1.6391014   -2.9724748   -3.0317492 
H     0.0561541   -3.4840306   -2.8436012 
