24
Energy =
C     0.2661367    1.9384386    0.6814983 
C     0.0321209    2.8267481   -0.3097229 
C     0.4409531    2.5450196   -1.5750501 
C     0.9147335    0.7739875    0.4230929 
C     1.3329097    0.4870952   -0.8416303 
C     1.0845527    1.3800416   -1.8406037 
O    -0.6291708    4.0190899   -0.0003827 
H    -0.7913323    4.6208744   -0.8005970 
H     1.0713203    0.0604923    1.2295562 
H     1.3909564    1.1644251   -2.8606085 
H     0.2494131    3.2479648   -2.3786304 
H    -0.0838509    2.1704879    1.6820026 
C     2.0471480   -0.8197640   -1.1433780 
C     1.0909420   -2.0303148   -1.1987176 
H     2.8406673   -0.9943564   -0.3831604 
H     2.5750957   -0.7470802   -2.1195135 
C     0.6232700   -2.4299347    0.2043970 
O    -0.5494945   -1.9044797    0.7316254 
O     1.4163694   -3.2266444    1.0292103 
H     2.2440081   -3.5600997    0.5585707 
N    -0.0235313   -1.7265183   -2.1131557 
H     1.6553415   -2.9019012   -1.6021561 
H     0.2976707   -1.8431899   -3.1018089 
H    -0.8032740   -2.4117406   -1.9628809 
