24
Energy =
C     0.4518060    2.0215680    0.6651989 
C    -0.8216772    2.2419786    0.2666932 
C    -1.3034394    1.6213580   -0.8342488 
C     1.2541034    1.1889737   -0.0461340 
C     0.7816682    0.5720256   -1.1643064 
C    -0.5079283    0.7850364   -1.5492702 
O    -1.6403601    3.0991184    0.9950344 
H    -1.5856169    4.0429015    0.6287377 
H     2.2702378    1.0055295    0.2935010 
H    -0.9102801    0.2857240   -2.4267715 
H    -2.3323138    1.7947701   -1.1291847 
H     0.8195034    2.5081968    1.5621233 
C     1.6664475   -0.3732792   -1.9471132 
C     1.6347259   -1.8030718   -1.3532822 
H     2.7118209    0.0076616   -1.9608739 
H     1.3430749   -0.3815915   -3.0136873 
C     2.1877386   -2.8505865   -2.3163362 
O     2.2360089   -2.5922703   -3.6758688 
O     2.5587522   -4.1130556   -1.8821765 
H     2.4823188   -4.1360696   -0.8775735 
N     2.3507578   -1.7884687   -0.0691835 
H     0.5734128   -2.0995270   -1.1758626 
H     2.1461956   -2.6614068    0.4642275 
H     3.3875468   -1.6616246   -0.2029765 
