24
Energy =
C     1.0754817    1.5664129    1.1753910 
C    -0.1414307    2.1262809    0.9872008 
C    -0.7564576    2.0212836   -0.2128850 
C     1.6794564    0.8919881    0.1640280 
C     1.0673705    0.7831492   -1.0483618 
C    -0.1583846    1.3502333   -1.2300718 
O    -0.7578185    2.8156698    2.0263391 
H    -1.3404057    2.1892697    2.5715925 
H     2.6527971    0.4384874    0.3332917 
H    -0.6723324    1.2671216   -2.1832444 
H    -1.7311966    2.4770829   -0.3486605 
H     1.5594828    1.6611080    2.1417768 
C     1.7276977    0.0026805   -2.1643416 
C     1.4756333   -1.5169888   -2.0252352 
H     2.8221432    0.2011993   -2.1420481 
H     1.3745793    0.3591003   -3.1572889 
C    -0.0030881   -1.8701185   -2.1351774 
O    -0.7405951   -2.1242908   -0.9864825 
O    -0.6572694   -1.8464592   -3.3628921 
H    -0.8468717   -0.8929584   -3.6245997 
N     2.2803703   -2.2494373   -3.0182611 
H     1.7856284   -1.8507284   -1.0073621 
H     1.9816486   -1.9917202   -3.9898279 
H     3.2950851   -2.0137623   -2.9136459 
