24
Energy =
C     1.7709088    2.3494975   -0.5466373 
C     0.5360115    2.9105564   -0.6391938 
C    -0.4913505    2.1863309   -1.1365868 
C     1.9733980    1.0721372   -0.9592901 
C     0.9419356    0.3449202   -1.4724275 
C    -0.2947225    0.9084709   -1.5492038 
O     0.2948296    4.2261706   -0.2317483 
H     1.1031710    4.6919661    0.1657935 
H     2.9635415    0.6334916   -0.8625728 
H    -1.1341851    0.3281569   -1.9220914 
H    -1.4751593    2.6403575   -1.1895493 
H     2.5969513    2.9197363   -0.1363989 
C     1.1594432   -1.0897807   -1.9163241 
C     0.5961983   -2.1118292   -0.9089311 
H     2.2436641   -1.2862999   -2.0697997 
H     0.6788468   -1.2451026   -2.9069197 
C     1.1447030   -1.8662183    0.5060815 
O     0.3720008   -1.2110659    1.4584774 
O     2.4437500   -2.2469096    0.8485978 
H     2.9144300   -2.7123420    0.0876205 
N    -0.8775670   -2.0859919   -0.9819994 
H     0.9488400   -3.1260293   -1.2075743 
H    -1.1903423   -2.6453033   -1.8105277 
H    -1.2804518   -2.5672389   -0.1404916 
