24
Energy =
C     1.7254734    2.4863781   -0.1297056 
C     0.5161484    3.0542443   -0.3820087 
C    -0.3760581    2.4065550   -1.1648293 
C     2.0375685    1.2785470   -0.6646899 
C     1.1453735    0.6321705   -1.4641020 
C    -0.0685005    1.1999547   -1.7045608 
O     0.1650089    4.2992959    0.1499246 
H     0.8750028    4.7141552    0.7432371 
H     3.0044461    0.8323924   -0.4463491 
H    -0.8054226    0.6838890   -2.3171522 
H    -1.3426139    2.8642494   -1.3466646 
H     2.4428041    2.9963440    0.5032848 
C     1.4807361   -0.7257905   -2.0413919 
C     0.9999216   -1.8703902   -1.1179595 
H     2.5810360   -0.8054672   -2.1912181 
H     1.0291011   -0.8295207   -3.0532732 
C    -0.5204751   -1.9015697   -0.9677268 
O    -1.0866911   -1.5781081    0.2588772 
O    -1.3680133   -2.1594906   -2.0463258 
H    -0.8510316   -2.4501989   -2.8600212 
N     1.5295150   -3.1577951   -1.6013296 
H     1.3860919   -1.6914192   -0.0853684 
H     1.3597798   -3.2707216   -2.6283921 
H     2.5667746   -3.1842800   -1.4581759 
