24
Energy =
C     0.1139092    2.5459269   -1.4694923 
C     0.6516443    2.9957743   -0.3131082 
C     1.4905630    2.1927568    0.3947491 
C     0.4087683    1.3028465   -1.9278396 
C     1.2537093    0.4982671   -1.2268940 
C     1.7879006    0.9483916   -0.0583111 
O     0.3256095    4.2836714    0.1246818 
H     0.7605852    4.5435481    1.0029644 
H    -0.0424276    0.9551541   -2.8550116 
H     2.4554121    0.3158373    0.5209124 
H     1.9233144    2.5431428    1.3254088 
H    -0.5593475    3.1932392   -2.0209769 
C     1.5654784   -0.8978071   -1.7203623 
C     0.6342178   -1.9571259   -1.0803355 
H     2.6254826   -1.1391517   -1.4841326 
H     1.4734857   -0.9466289   -2.8304832 
C    -0.8249492   -1.7230101   -1.4346373 
O    -1.2207077   -1.5443379   -2.7582554 
O    -1.7804134   -1.6694731   -0.4260134 
H    -2.6892951   -1.5216784   -0.8448657 
N     1.0514284   -3.3205780   -1.4754205 
H     0.6789194   -1.8498416    0.0301404 
H     1.9193567   -3.3309706   -2.0617897 
H     1.2463211   -3.8965301   -0.6227142 
