24
Energy =
C    -0.3278626    2.4527992   -1.2254314 
C    -0.1989842    2.6917911    0.0994313 
C     0.5758063    1.8857531    0.8600558 
C     0.3099033    1.3976388   -1.7937615 
C     1.0832196    0.5721109   -1.0327213 
C     1.2182033    0.8298072    0.2992837 
O    -0.8556964    3.7733072    0.6776172 
H    -1.7736484    3.4965630    1.0079956 
H     0.1988176    1.2245642   -2.8607051 
H     1.8373575    0.1910373    0.9250847 
H     0.6777340    2.0955344    1.9192090 
H    -0.9419171    3.1155550   -1.8260894 
C     1.7954148   -0.6123439   -1.6596305 
C     1.0697489   -1.9653888   -1.4351298 
H     2.8252619   -0.6780210   -1.2401348 
H     1.9292977   -0.4515459   -2.7522440 
C     0.9612994   -2.3193500    0.0457606 
O     2.0853791   -2.7743476    0.7241205 
O    -0.2177439   -2.1209877    0.7559932 
H    -0.0739593   -2.4124632    1.7143506 
N    -0.2144538   -2.0345354   -2.1771631 
H     1.7306398   -2.7615402   -1.8476208 
H    -1.0142607   -2.2353923   -1.5275137 
H    -0.4565870   -1.1290871   -2.6373281 
