24
Energy =
C     0.6151478    2.6505717   -1.2138731 
C     1.0500678    2.7933063    0.0586695 
C     1.6013515    1.7421145    0.7079950 
C     0.7242821    1.4519623   -1.8407490 
C     1.2731823    0.3857811   -1.1926011 
C     1.7120657    0.5394619    0.0882478 
O     0.9386375    4.0242699    0.6967937 
H     0.0592296    4.0901100    1.1982896 
H     0.3616097    1.3489484   -2.8610522 
H     2.1552452   -0.2974928    0.6223424 
H     1.9547746    1.8743183    1.7251343 
H     0.1786269    3.5022894   -1.7248235 
C     1.3891493   -0.9621522   -1.8754120 
C     0.2949582   -1.9542619   -1.4031180 
H     2.3974306   -1.3776956   -1.6557631 
H     1.3430407   -0.8557850   -2.9832178 
C    -1.0946965   -1.6610450   -1.9850823 
O    -1.3274225   -0.5142929   -2.7355671 
O    -2.1653710   -2.5167825   -1.7418012 
H    -1.8413122   -3.3628100   -1.2957290 
N     0.7223548   -3.3325765   -1.7107470 
H     0.1634222   -1.8614609   -0.2999654 
H     0.9184313   -3.4261213   -2.7379417 
H     1.6099847   -3.5597432   -1.2011130 
