24
Energy =
C     0.2793789    1.9577209    0.6542620 
C     0.0656710    2.8412425   -0.3457365 
C     0.4778942    2.5423525   -1.6060211 
C     0.9104940    0.7807613    0.4093434 
C     1.3313908    0.4763085   -0.8495971 
C     1.1042678    1.3649334   -1.8576398 
O    -0.5784297    4.0464522   -0.0504175 
H    -0.7238000    4.6446096   -0.8565564 
H     1.0526590    0.0717952    1.2213661 
H     1.4145026    1.1365826   -2.8737331 
H     0.3032237    3.2416383   -2.4166328 
H    -0.0720879    2.2041370    1.6507534 
C     2.0276210   -0.8434939   -1.1351709 
C     1.0595288   -2.0462582   -1.1753724 
H     2.8212126   -1.0214790   -0.3750383 
H     2.5550910   -0.7893751   -2.1124789 
C     0.6698258   -2.4972469    0.2243439 
O    -0.3918276   -1.9185254    0.9095091 
O     1.4425666   -3.4456770    0.8759907 
H     1.0268060   -3.6316900    1.7802238 
N    -0.1019555   -1.7195285   -2.0231660 
H     1.6029847   -2.9187686   -1.6083469 
H     0.1714911   -1.7997342   -3.0295643 
H    -0.8686071   -2.4154734   -1.8569783 
