24
Energy =
C     0.9027537    1.4778771    1.2289662 
C    -0.1630461    2.2582858    0.9072642 
C    -0.6239296    2.2694963   -0.3636141 
C     1.5036073    0.7175508    0.2787021 
C     1.0420575    0.7294253   -1.0028263 
C    -0.0298669    1.5092856   -1.3167548 
O    -0.8021724    3.0570534    1.8605215 
H    -0.4180118    2.9750653    2.7957250 
H     2.3486128    0.0902842    0.5546338 
H    -0.4225777    1.5220449   -2.3301809 
H    -1.4786827    2.8907742   -0.6072715 
H     1.2732933    1.4562748    2.2479641 
C     1.6981749   -0.1359168   -2.0613022 
C     1.1344485   -1.5722726   -2.1043313 
H     2.7965129   -0.1676890   -1.8868989 
H     1.5625219    0.3265918   -3.0646837 
C     1.3368805   -2.3200215   -0.7810072 
O     0.2726370   -2.4987618    0.0950894 
O     2.5965098   -2.7879891   -0.4042288 
H     3.2955165   -2.6131194   -1.1105971 
N    -0.2701056   -1.5336702   -2.5511288 
H     1.7192363   -2.1353215   -2.8667062 
H    -0.6009991   -2.5147045   -2.7163818 
H    -0.8747171   -1.1670868   -1.7766890 
