24
Energy =
C     0.4709340    1.9060492    0.7576414 
C     0.4266040    2.8629981   -0.1963215 
C     0.8305051    2.5819084   -1.4559840 
C     0.9364659    0.6654599    0.4582771 
C     1.3578295    0.3758152   -0.8053247 
C     1.2944489    1.3438445   -1.7636401 
O    -0.0437523    4.1340840    0.1167948 
H     0.7154950    4.7346514    0.4178116 
H     0.9449719   -0.1021934    1.2285570 
H     1.6033166    1.1321933   -2.7836327 
H     0.7698533    3.3535728   -2.2158001 
H     0.1167869    2.1392656    1.7566896 
C     1.8754345   -1.0101766   -1.1518911 
C     0.7581696   -2.0715548   -1.2589556 
H     2.6289523   -1.3278549   -0.3965441 
H     2.4177831   -0.9800984   -2.1220120 
C     0.3149139   -2.5564258    0.1130695 
O    -0.6859812   -1.9102170    0.8283784 
O     0.9814771   -3.6142688    0.7113818 
H     0.5427277   -3.8060269    1.6034929 
N    -0.3513723   -1.5434566   -2.0741500 
H     1.1824942   -2.9785556   -1.7501532 
H    -0.0947935   -1.6010425   -3.0864702 
H    -1.2050828   -2.1373260   -1.9388428 
