24
Energy =
C     2.2164634    1.9962074    0.0974057 
C     1.4960486    2.9806153   -0.4855548 
C     0.6018331    2.6704993   -1.4615410 
C     2.0561685    0.7043723   -0.2897417 
C     1.1693564    0.3881723   -1.2726387 
C     0.4363777    1.3808191   -1.8511827 
O     1.6926558    4.2983172   -0.0611584 
H     1.1088424    4.9767321   -0.5383293 
H     2.6253154   -0.0786569    0.2045563 
H    -0.2903611    1.1521160   -2.6273797 
H     0.0145394    3.4527316   -1.9305618 
H     2.9174930    2.2584472    0.8831443 
C     0.9818381   -1.0546696   -1.7000214 
C     0.2560655   -1.8817295   -0.6170878 
H     1.9714175   -1.5040476   -1.9306072 
H     0.4099697   -1.0862380   -2.6567909 
C    -0.5420133   -3.0448849   -1.2498701 
O    -1.5902514   -2.7216622   -2.1060330 
O    -0.2155998   -4.3993636   -1.0775853 
H     0.4178662   -4.6263377   -0.3261326 
N     1.2491329   -2.2537483    0.4231700 
H    -0.5380072   -1.2382922   -0.1596361 
H     0.7334594   -2.4012357    1.3216282 
H     1.7053186   -3.1835112    0.2084603 
