24
Energy =
C    -0.3168217    2.2603053   -0.2484395 
C     0.1272713    2.1020950    1.0188865 
C     1.0806522    1.1697633    1.2859395 
C     0.1853852    1.4991148   -1.2526315 
C     1.1449889    0.5682273   -0.9922954 
C     1.5851835    0.4039112    0.2855391 
O    -0.4122049    2.9083836    2.0259069 
H    -0.0359504    2.7234399    2.9496784 
H    -0.1914447    1.6339057   -2.2645102 
H     2.3425902   -0.3416183    0.5153805 
H     1.4398489    1.0329020    2.3004461 
H    -1.0830203    3.0017928   -0.4470195 
C     1.6929422   -0.3026106   -2.1030821 
C     0.9672421   -1.6600620   -2.1858297 
H     2.7793366   -0.4719935   -1.9366740 
H     1.6149856    0.2116355   -3.0887241 
C    -0.5057108   -1.5057455   -2.5480727 
O    -0.9362853   -0.5216224   -3.4339021 
O    -1.4387426   -2.3815837   -2.0104287 
H    -2.3514598   -2.1470115   -2.3794243 
N     1.6799282   -2.5056463   -3.1601132 
H     0.9809585   -2.1484710   -1.1826364 
H     2.5953314   -2.8052733   -2.7503698 
H     1.1314022   -3.3863702   -3.3191183 
