24
Energy =
C    -0.6962071    2.0424217   -1.6822737 
C    -0.5622984    2.7146188   -0.5164130 
C     0.3668499    2.3257589    0.3863371 
C     0.1090472    0.9841617   -1.9552203 
C     1.0571256    0.5927111   -1.0578014 
C     1.1762768    1.2687174    0.1199083 
O    -1.3860577    3.8010626   -0.2420246 
H    -0.9580838    4.6641679   -0.5573104 
H    -0.0173779    0.4437439   -2.8895225 
H     1.9126320    0.9600650    0.8581771 
H     0.4489767    2.8627524    1.3253166 
H    -1.4581315    2.3522147   -2.3898992 
C     1.9538550   -0.5940776   -1.3585128 
C     1.2955907   -1.9448788   -1.0025573 
H     2.9162253   -0.4977816   -0.8073334 
H     2.2205784   -0.5925491   -2.4377373 
C     1.0066681   -2.0704592    0.4938102 
O    -0.0585617   -2.8377061    0.9544781 
O     1.8864296   -1.5274883    1.4260531 
H     1.5612851   -1.7728139    2.3533653 
N     0.0979046   -2.1315680   -1.8452318 
H     2.0287091   -2.7548965   -1.2188195 
H     0.3994187   -2.3449573   -2.8243960 
H    -0.4352949   -2.9740958   -1.5178495 
