24
Energy =
C     1.3008471    2.3694548    0.2415336 
C     0.3122704    3.0004795   -0.4315700 
C    -0.2362442    2.4125798   -1.5282791 
C     1.7514614    1.1592239   -0.1740348 
C     1.2160806    0.5722464   -1.2800658 
C     0.2105215    1.2018266   -1.9484382 
O    -0.1214357    4.2483895    0.0255169 
H    -0.8821822    4.6444570   -0.5161944 
H     2.5311185    0.6562088    0.3921400 
H    -0.2515968    0.7336441   -2.8139794 
H    -1.0388209    2.9051305   -2.0669671 
H     1.7203938    2.8423332    1.1228788 
C     1.6938851   -0.7955893   -1.7275723 
C     0.9465919   -1.9911495   -1.0685159 
H     2.7822723   -0.8905103   -1.5180056 
H     1.6196601   -0.8634562   -2.8363233 
C    -0.1103628   -1.5937487   -0.0395427 
O    -1.4190632   -1.3254958   -0.4268115 
O     0.2473203   -1.4299950    1.2917671 
H    -0.5751153   -1.1502094    1.8118303 
N     0.4051331   -2.8595443   -2.1309935 
H     1.6955976   -2.5768029   -0.4861185 
H     0.0319998   -3.7362405   -1.6941030 
H    -0.4246205   -2.3872296   -2.5672020 
