24
Energy =
C     1.2333227    2.2695268    0.4464181 
C    -0.0235642    2.6937482    0.1811554 
C    -0.7719986    2.0547337   -0.7472615 
C     1.7504901    1.2081095   -0.2234202 
C     1.0060121    0.5649631   -1.1661541 
C    -0.2620944    0.9925888   -1.4211708 
O    -0.5500300    3.7809535    0.8712545 
H    -0.3624853    4.6452692    0.3750958 
H     2.7593734    0.8743101    0.0051497 
H    -0.8757036    0.4860817   -2.1620783 
H    -1.7827146    2.3976683   -0.9401999 
H     1.8179256    2.7828404    1.2026943 
C     1.5677115   -0.6303809   -1.9044777 
C     1.0387837   -1.9742297   -1.3399435 
H     2.6803352   -0.6252241   -1.8800236 
H     1.2945718   -0.5372525   -2.9810102 
C     1.4350061   -3.1632372   -2.2235632 
O     1.7412208   -2.9589618   -3.5642217 
O     1.4087713   -4.4707751   -1.7435513 
H     1.1765117   -4.4843764   -0.7609340 
N     1.4911590   -2.1549109    0.0546923 
H    -0.0757765   -1.9664360   -1.3672092 
H     2.5277671   -2.0110521    0.1263695 
H     1.0314334   -1.4460943    0.6758996 
