24
Energy =
C     0.1333202    2.6011087   -1.0392325 
C     0.4593841    2.7424056    0.2657489 
C     1.1457277    1.7657221    0.9011653 
C     0.4823386    1.4748183   -1.7116439 
C     1.1629681    0.4787960   -1.0762713 
C     1.5010151    0.6382087    0.2353266 
O     0.0978246    3.8979200    0.9511988 
H    -0.8132013    3.7846789    1.3829915 
H     0.2136818    1.3805260   -2.7599792 
H     2.0500944   -0.1377172    0.7630705 
H     1.4068018    1.8947809    1.9458182 
H    -0.4070462    3.3973483   -1.5402427 
C     1.5469388   -0.7887325   -1.8192996 
C     0.5954108   -1.9856459   -1.5470859 
H     2.5847584   -1.0724595   -1.5338230 
H     1.5840953   -0.5975200   -2.9148180 
C     0.5476845   -2.3627081   -0.0632247 
O    -0.4525484   -1.8581181    0.7612061 
O     1.5594028   -3.1323325    0.5172425 
H     2.2450017   -3.4346734   -0.1584142 
N    -0.7579796   -1.7459729   -2.0920326 
H     1.0325155   -2.8687108   -2.0678068 
H    -0.8563354   -0.8095890   -2.5448206 
H    -0.9858886   -2.4625526   -2.8206174 
