24
Energy =
C    -0.4347654    2.1616285   -0.3941564 
C    -0.1324950    2.0601035    0.9204740 
C     0.7922251    1.1636616    1.3356913 
C     0.1974186    1.3745468   -1.3011683 
C     1.1414454    0.4801037   -0.8924245 
C     1.4284106    0.3723502    0.4345214 
O    -0.7811678    2.8700420    1.8469383 
H    -0.2712759    3.7350911    1.9881599 
H    -0.0637521    1.4545874   -2.3549942 
H     2.1632491   -0.3491627    0.7830266 
H     1.0114435    1.0809990    2.3949870 
H    -1.1923333    2.8704164   -0.7117432 
C     1.8322614   -0.4177589   -1.8962755 
C     1.0913030   -1.7649618   -2.0680568 
H     2.8770085   -0.6068768   -1.5642634 
H     1.9095706    0.0936295   -2.8830472 
C    -0.3248315   -1.5780108   -2.5919767 
O    -0.5687118   -0.7744229   -3.7036094 
O    -1.3961258   -2.1825209   -1.9479989 
H    -2.2433536   -1.9628213   -2.4542725 
N     1.8692014   -2.6502661   -2.9510579 
H     0.9855530   -2.2565301   -1.0734113 
H     1.9773534   -2.2027777   -3.8935859 
H     2.8266290   -2.7997506   -2.5554535 
