24
Energy =
C     1.6910157    2.2041729    0.5529837 
C     0.4435769    2.7192614    0.6489750 
C    -0.5324547    2.2764917   -0.1880738 
C     1.9726732    1.2508605   -0.3706754 
C     1.0017333    0.8115329   -1.2166960 
C    -0.2554409    1.3262004   -1.1157424 
O     0.1919573    3.6978690    1.6166806 
H    -0.7675683    4.0279118    1.6320706 
H     2.9791692    0.8434999   -0.4274033 
H    -1.0498588    0.9717051   -1.7695348 
H    -1.5379838    2.6768037   -0.1147047 
H     2.4598804    2.5632140    1.2283238 
C     1.3072761   -0.2723038   -2.2272653 
C     1.0992292   -1.6800683   -1.6396295 
H     2.3614122   -0.1760468   -2.5735674 
H     0.6770224   -0.1468894   -3.1376817 
C    -0.3662088   -1.9257039   -1.2596816 
O    -1.2909042   -2.2277233   -2.2521880 
O    -0.8187824   -1.7785673    0.0517166 
H    -0.0854316   -1.4814357    0.6774369 
N     1.6006753   -2.6622330   -2.6165500 
H     1.7105263   -1.7713270   -0.7127832 
H     1.5293514   -3.6247187   -2.2076594 
H     0.9837319   -2.6631658   -3.4661373 
