24
Energy =
C     0.9931719    1.2819478    1.3843634 
C     0.3833667    2.3796394    0.8824999 
C     0.2483929    2.5170977   -0.4636570 
C     1.4716400    0.3208693    0.5547112 
C     1.3485109    0.4586365   -0.7939975 
C     0.7271144    1.5602563   -1.2982314 
O    -0.0948978    3.3482583    1.7711828 
H    -0.5579939    4.1297702    1.3195088 
H     1.9503382   -0.5585430    0.9775379 
H     0.6010199    1.6782864   -2.3720966 
H    -0.2466456    3.3896296   -0.8760626 
H     1.0884882    1.1816772    2.4597719 
C     1.8562636   -0.6241902   -1.7209277 
C     0.7914673   -1.7126879   -1.9639785 
H     2.7620899   -1.1005595   -1.2801640 
H     2.1937688   -0.1813938   -2.6832708 
C    -0.4637628   -1.1821362   -2.6631152 
O    -1.6930651   -1.3118854   -2.0308442 
O    -0.4188278   -0.5811277   -3.9217238 
H     0.5181624   -0.5522336   -4.2898600 
N     1.4219303   -2.8313685   -2.6878354 
H     0.4430470   -2.0855932   -0.9704480 
H     0.7282036   -3.6110697   -2.7976292 
H     1.6967324   -2.5349177   -3.6540506 
