24
Energy =
C     0.9125323    1.2442783    1.4356723 
C     0.3230559    2.3473518    0.9199912 
C     0.2061716    2.4882700   -0.4207379 
C     1.3991717    0.2826323    0.6109234 
C     1.3018088    0.4261713   -0.7403811 
C     0.6937293    1.5325408   -1.2519931 
O    -0.1713249    3.3323299    1.7698828 
H     0.5388526    4.0296911    1.9632290 
H     1.8622580   -0.6027270    1.0389764 
H     0.5833441    1.6539570   -2.3270651 
H    -0.2879815    3.3670760   -0.8205055 
H     0.9838551    1.1348535    2.5124388 
C     1.8212238   -0.6553970   -1.6621407 
C     0.7518864   -1.7310572   -1.9402937 
H     2.7100651   -1.1448770   -1.2016993 
H     2.1883949   -0.2090710   -2.6117854 
C    -0.4740118   -1.1860415   -2.6794679 
O    -1.7257544   -1.3099138   -2.0918104 
O    -0.3806382   -0.5805011   -3.9333302 
H     0.5681961   -0.5610990   -4.2701915 
N     1.3923799   -2.8566068   -2.6444686 
H     0.3674050   -2.1003317   -0.9586793 
H     0.6945407   -3.6297316   -2.7731761 
H     1.6976343   -2.5640738   -3.6026748 
