24
Energy =
C     0.3503441    2.0013433    0.6062613 
C    -0.1031422    2.7776681   -0.4035647 
C     0.1084152    2.4095580   -1.6876402 
C     1.0324696    0.8584448    0.3348018 
C     1.2570554    0.4835981   -0.9561891 
C     0.7852606    1.2666435   -1.9672394 
O    -0.7965782    3.9498606   -0.1208523 
H    -0.1614674    4.7377424   -0.0575825 
H     1.3754297    0.2325940    1.1572903 
H     0.9407904    0.9828809   -3.0047366 
H    -0.2755345    3.0343144   -2.4869731 
H     0.1501626    2.2977577    1.6310452 
C     2.0085257   -0.7969583   -1.2694134 
C     1.1601277   -2.0833390   -1.0895293 
H     2.9180649   -0.8558708   -0.6298339 
H     2.3884025   -0.7689938   -2.3151231 
C     0.9378223   -2.4263658    0.3871737 
O    -0.1045057   -1.8341741    1.0915514 
O     1.8452399   -3.2151250    1.0946546 
H     2.5625747   -3.6017616    0.5005753 
N    -0.1033812   -1.9990317   -1.8429204 
H     1.7403932   -2.9298107   -1.5185227 
H    -0.7514447   -1.3154947   -1.3799504 
H     0.0759089   -1.6596979   -2.8159327 
