24
Energy =
C     0.4627031    2.5958053   -1.0867380 
C     0.3832359    2.7841253    0.2500350 
C     0.7930449    1.7989590    1.0930680 
C     0.9478810    1.4326018   -1.5899896 
C     1.3624791    0.4445289   -0.7506751 
C     1.2792538    0.6335676    0.5954134 
O    -0.1239478    3.9959064    0.7295611 
H    -0.1469412    4.0634696    1.7413215 
H     1.0023120    1.2986821   -2.6675020 
H     1.5994444   -0.1456749    1.2823638 
H     0.7318869    1.9407983    2.1667306 
H     0.1317316    3.3893002   -1.7479892 
C     1.8875111   -0.8584010   -1.3125404 
C     0.7508685   -1.7893577   -1.8084549 
H     2.5119850   -1.3920744   -0.5604813 
H     2.5752842   -0.6279141   -2.1584366 
C     1.2860404   -3.0106338   -2.5614158 
O     2.6492155   -3.2906838   -2.5678998 
O     0.4260998   -3.8610948   -3.2555912 
H    -0.5406038   -3.6113549   -3.0995775 
N    -0.1107256   -2.2006106   -0.6861876 
H     0.1348630   -1.2337419   -2.5517032 
H     0.4696401   -2.6081471    0.0855648 
H    -0.6161335   -1.3683021   -0.3004299 
