24
Energy =
C     0.4816912    2.1459196    0.4818469 
C    -0.6670469    2.4281390   -0.1890515 
C    -0.9562232    1.7609600   -1.3297111 
C     1.3333684    1.2014258    0.0084303 
C     1.0459142    0.5336125   -1.1430344 
C    -0.1083393    0.8148709   -1.8075156 
O    -1.5667932    3.3942201    0.2719000 
H    -1.2776402    3.8527585    1.1291705 
H     2.2441718    0.9782878    0.5598566 
H    -0.3607828    0.2870727   -2.7240461 
H    -1.8768442    1.9937432   -1.8544401 
H     0.7205334    2.6726047    1.3996554 
C     1.9821127   -0.5342708   -1.6631151 
C     1.5495179   -1.9496505   -1.2270753 
H     3.0231527   -0.3537354   -1.3115464 
H     2.0277886   -0.4755674   -2.7743979 
C     2.3276674   -3.0251948   -1.9761406 
O     1.9760827   -4.3605332   -1.8220616 
O     3.3615272   -2.6982004   -2.8464739 
H     3.7480287   -3.5553970   -3.2219563 
N     1.7199380   -2.0732651    0.2336702 
H     0.4833067   -2.1185033   -1.5070047 
H     0.9286076   -1.5825149    0.7117487 
H     1.6299126   -3.0824869    0.5093454 
