24
Energy =
C     0.7667181    1.5682281    1.2473373 
C     0.3074041    2.6032237    0.5069260 
C     0.3379322    2.5352332   -0.8442010 
C     1.2677595    0.4640391    0.6386117 
C     1.3167711    0.3945449   -0.7211837 
C     0.8414395    1.4357157   -1.4604252 
O    -0.2079844    3.7323929    1.1356892 
H     0.5222508    4.4160177    1.3027892 
H     1.6252058   -0.3631548    1.2466565 
H     0.8477606    1.3894957   -2.5475714 
H    -0.0526011    3.3633480   -1.4261541 
H     0.7226806    1.6280062    2.3294756 
C     1.8472261   -0.8479886   -1.4025144 
C     0.7437821   -1.8992106   -1.6202634 
H     2.6576278   -1.2968995   -0.7846428 
H     2.3177272   -0.5869673   -2.3778575 
C    -0.3172678   -1.4075807   -2.6128443 
O    -0.0593792   -1.4635851   -3.9777233 
O    -1.5161299   -0.8379713   -2.1821519 
H    -1.5715982   -0.7735959   -1.1762369 
N     1.3840190   -3.1541228   -2.0521875 
H     0.2360296   -2.0894597   -0.6470561 
H     0.6537801   -3.9004215   -2.1478268 
H     1.7960358   -3.0293828   -3.0096597 
