14
Energy = -398.8243447
C    -1.1032953    0.6451961   -0.1225770 
C    -0.0490534   -0.4590380   -0.2201168 
C     1.3415282    0.0986157    0.0581752 
O    -0.8154446    1.7451204   -0.9680283 
H    -1.1274851    1.0323362    0.8942442 
H    -2.0866870    0.2114340   -0.3491330 
H    -0.7930433    1.4445626   -1.8836118 
O     2.2689771    0.0022845   -0.7037725 
O     1.4306631    0.7123998    1.2515008 
H     2.3376603    1.0467781    1.3319773 
N    -0.3672971   -1.5113705    0.7418307 
H    -0.0034365   -0.8112101   -1.2602082 
H     0.2705127   -2.2931708    0.6507353 
H    -1.3035991   -1.8639380    0.5789842 
