14
Energy = -398.8281116
C    -1.0881130    0.8137916    0.0865747 
C     0.0046994   -0.2264539   -0.1415033 
C     1.3452288    0.4439692   -0.3829698 
O    -2.3568702    0.1851533    0.2554818 
H    -1.1001219    1.5347681   -0.7328267 
H    -0.8868342    1.3487335    1.0139796 
H    -2.6892086   -0.0793098   -0.6091417 
O     1.5159789    1.6120044   -0.6136250 
O     2.3589229   -0.4500360   -0.3523619 
H     3.1793916    0.0416073   -0.5156422 
N     0.0800687   -1.1102206    1.0140486 
H    -0.2265997   -0.7573898   -1.0845162 
H     0.7090077   -1.8852802    0.8496779 
H    -0.8455502   -1.4713371    1.2128242 
