14
Energy = -398.8325779
C    -1.0171024    0.6730241    0.2189581 
C     0.1657852   -0.0829911   -0.4000144 
C     1.4236890    0.7749805   -0.2065321 
O    -2.2243323   -0.0719511    0.1298539 
H    -1.1015077    1.6532803   -0.2539213 
H    -0.8365644    0.8177063    1.2857424 
H    -2.5462432   -0.0392160   -0.7780325 
O     1.6340337    1.7721254   -0.8418153 
O     2.2329208    0.3344350    0.7634006 
H     1.8199068   -0.4981967    1.0887561 
N     0.3178466   -1.3783989    0.2618452 
H     0.0015892   -0.1627583   -1.4801662 
H     0.7164295   -2.0730292   -0.3576870 
H    -0.5864508   -1.7190105    0.5696124 
