14
Energy = -398.8277576
C    -0.9437279    0.4719270    0.5401966 
C    -0.0743628   -0.1728081   -0.5512694 
C     1.1723566    0.6737022   -0.7152935 
O    -2.1501543   -0.2811037    0.5904442 
H    -1.1399572    1.5189010    0.2847620 
H    -0.4142494    0.4315937    1.5005249 
H    -2.6964906    0.0472818    1.3111319 
O     1.2345152    1.6779803   -1.3738988 
O     2.2119170    0.2177300    0.0200517 
H     2.9515019    0.8285903   -0.1251067 
N     0.2351435   -1.5765381   -0.3309880 
H    -0.6235395   -0.0813765   -1.4905675 
H    -0.6243733   -2.0698667   -0.1182812 
H     0.8614208   -1.6860132    0.4582937 
