14
Energy = -398.8278047
C    -1.0823262    0.5771442   -0.4048528 
C    -0.0959715   -0.5756273   -0.2937403 
C     1.3158002   -0.0904922    0.0130889 
O    -0.5764132    1.4818454   -1.3782850 
H    -1.1871571    1.0625413    0.5718039 
H    -2.0539222    0.1661618   -0.6964042 
H    -1.1033571    2.2863188   -1.3659817 
O     2.3094800   -0.4154701   -0.5800295 
O     1.3488220    0.7078186    1.1103700 
H     2.2781849    0.9380972    1.2641689 
N    -0.5793943   -1.5299498    0.7028802 
H    -0.0348087   -1.0814844   -1.2571972 
H    -0.5029898   -1.1429194    1.6369225 
H    -0.0359470   -2.3839842    0.6772562 
