14
Energy = -398.8290949
C    -1.0812819    0.3929437   -0.3251511 
C     0.2069599   -0.3784308   -0.0657696 
C     1.4119958    0.5195180    0.1360485 
O    -2.0745474   -0.5844048   -0.6330557 
H    -0.9476650    1.0878582   -1.1574270 
H    -1.3463224    0.9513714    0.5784532 
H    -2.9431318   -0.1746923   -0.5798203 
O     2.2975065    0.3110050    0.9219775 
O     1.4260810    1.5710198   -0.7147460 
H     2.2513579    2.0539076   -0.5494717 
N     0.0469228   -1.2276447    1.0988118 
H     0.4292809   -0.9335572   -0.9950934 
H     0.9343417   -1.6203716    1.3852880 
H    -0.6114980   -1.9685223    0.8999557 
