14
Energy = -398.8312299
C    -1.0270424    0.7637773    0.0543597 
C     0.1490791   -0.1509967   -0.2902666 
C     1.4647958    0.6456769   -0.3311928 
O    -2.2642755    0.0624560    0.0082183 
H    -1.0205246    1.6345551   -0.6026607 
H    -0.9163584    1.1221418    1.0812694 
H    -2.5864043    0.0576317   -0.8991135 
O     1.5483209    1.7471885   -0.8038808 
O     2.5086944   -0.0113762    0.1838023 
H     2.1448610   -0.8706988    0.4986715 
N     0.2908460   -1.3138965    0.5919640 
H     0.0094515   -0.5246058   -1.3100306 
H    -0.2950966   -2.0783810    0.2839023 
H    -0.0063470   -1.0834723    1.5349573 
