14
Energy = -398.8293412
C    -1.1925526    0.5110506    0.3242511 
C    -0.1592832   -0.4163302   -0.3671382 
C     1.1698548    0.3090657   -0.3827864 
O    -1.4747504    1.6834889   -0.4026581 
H    -0.8455951    0.7346122    1.3445280 
H    -2.1287486   -0.0444774    0.4085642 
H    -0.6287692    2.0755980   -0.6665121 
O     1.3158521    1.4096879   -0.8659471 
O     2.1667167   -0.3363715    0.2435095 
H     2.9461797    0.2415631    0.2043952 
N    -0.0609165   -1.7491639    0.1992720 
H    -0.4650514   -0.4991661   -1.4146009 
H    -0.9738027   -2.1849595    0.2423365 
H     0.3308663   -1.7345979    1.1327863 
