14
Energy = -398.8295726
C    -1.2557364    0.1634515   -0.0843846 
C     0.0902949   -0.6089385   -0.1051724 
C     1.2217576    0.3755686    0.0903354 
O    -1.5033519    0.9260639   -1.2463009 
H    -1.3072325    0.7737318    0.8279872 
H    -2.0548815   -0.5781097   -0.0332674 
H    -0.7403094    1.4929554   -1.4132311 
O     1.8872357    0.4946769    1.0831195 
O     1.3710852    1.1923024   -0.9866518 
H     2.0741407    1.8253447   -0.7683002 
N     0.1957693   -1.6415824    0.9066427 
H     0.1901975   -1.0435011   -1.1047950 
H    -0.6856110   -2.1168974    1.0480437 
H     0.5166418   -1.2550661    1.7859748 
