14
Energy = -398.8296791
C    -1.2366023    0.2718650   -0.3039309 
C     0.0831341   -0.5179017   -0.3817850 
C     1.2464912    0.4390421   -0.2029328 
O    -1.3685732    1.0081132    0.8971559 
H    -2.0633976   -0.4410490   -0.4277780 
H    -1.2874970    0.9952148   -1.1171861 
H    -1.1841973    0.4177787    1.6382106 
O     1.9528460    0.4944875    0.7687993 
O     1.3854501    1.2570195   -1.2652784 
H     2.1070430    1.8726632   -1.0616888 
N     0.2039084   -1.5829337    0.5966675 
H     0.1499590   -0.9273243   -1.3962781 
H    -0.6809579   -2.0118225    0.8285043 
H     0.6923937   -1.2751528    1.4275204 
