14
Energy = -398.8284820
C    -0.9078075    0.8536509   -0.4569580 
C    -0.0786813   -0.4427247   -0.5664271 
C     1.3766629   -0.1814247   -0.2139613 
O    -1.1679843    1.2329198    0.8832035 
H    -1.8833557    0.6752871   -0.9125734 
H    -0.4168998    1.6612049   -1.0157274 
H    -0.3226788    1.3746950    1.3282141 
O     2.3113285   -0.2679919   -0.9610567 
O     1.5195945    0.2124178    1.0830546 
H     2.4685749    0.3455413    1.2376917 
N    -0.5765349   -1.5478822    0.2477119 
H    -0.0636707   -0.7534637   -1.6112513 
H    -1.3861347   -1.9665110   -0.1939530 
H    -0.8724132   -1.1957186    1.1520324 
