14
Energy = -398.8309040
C    -1.2663615    0.4936059   -0.3052801 
C    -0.1475270   -0.5409886   -0.1209370 
C     1.1986110    0.0734560   -0.4798044 
O    -1.1696958    1.5545555    0.6269949 
H    -2.2268759    0.0067576   -0.1256728 
H    -1.2639667    0.8672028   -1.3379375 
H    -0.3088455    1.9742532    0.4796520 
O     1.5036630    1.2261652   -0.2729869 
O     2.0414080   -0.8057935   -1.0427701 
H     2.8866557   -0.3488627   -1.1849461 
N    -0.0218546   -1.0536405    1.2441653 
H    -0.3170887   -1.3832669   -0.7938362 
H    -0.7165567   -1.7692126    1.4173467 
H    -0.1915652   -0.2942313    1.8960123 
