14
Energy = -398.8296857
C    -1.3431695    0.1533482    0.1099721 
C     0.0199306   -0.5237212   -0.1147834 
C     1.1209840    0.5142661    0.0676412 
O    -1.5148136    1.3475377   -0.6325762 
H    -1.4224297    0.4396462    1.1599369 
H    -2.1225591   -0.5846813   -0.1021928 
H    -1.4709438    1.1450182   -1.5737414 
O     1.5669945    0.8493408    1.1341483 
O     1.5470130    1.0294507   -1.1048771 
H     2.2018266    1.7162265   -0.8981784 
N     0.1308058   -1.6473455    0.8016895 
H     0.0647467   -0.8976600   -1.1401744 
H     0.3079636   -1.3012509    1.7395653 
H     0.9136510   -2.2401755    0.5535705 
