14
Energy = -398.8320480
C    -0.8431934    0.6534471    0.6382051 
C     0.0273603   -0.0055198   -0.4195901 
C     1.3627233    0.7406835   -0.5722236 
O    -2.0940066   -0.0287569    0.6316014 
H    -0.9540110    1.7137559    0.4032609 
H    -0.3549153    0.5697468    1.6189108 
H    -2.6974035    0.4204899    1.2316902 
O     1.4682806    1.9331134   -0.4724688 
O     2.3929923   -0.0626219   -0.8581926 
H     2.0240956   -0.9752346   -0.8452467 
N     0.2744564   -1.4359242   -0.2132422 
H    -0.4810795    0.1000918   -1.3829779 
H    -0.5128360   -1.9840357   -0.5347564 
H     0.3875367   -1.6392354    0.7750300 
