14
Energy = -398.8308916
C    -1.2173685    0.7102389    0.2647228 
C    -0.2106376   -0.3874861   -0.0978937 
C     1.1563663    0.2167656   -0.3587570 
O    -1.4688420    1.5957022   -0.8057279 
H    -0.8637564    1.2341911    1.1593049 
H    -2.1693306    0.2357464    0.5106384 
H    -0.6375171    2.0563959   -0.9835810 
O     1.3658095    1.3765284   -0.6196048 
O     2.1443426   -0.6993474   -0.3169917 
H     2.9753270   -0.2387867   -0.5155966 
N    -0.1406968   -1.3716939    0.9772175 
H    -0.5203823   -0.8067248   -1.0704358 
H     0.6005147   -2.0410070    0.8140916 
H    -1.0138288   -1.8805224    1.0426132 
