14
Energy = -398.8271990
C    -1.0066027    0.6343488    0.3954845 
C     0.0844436   -0.2012688   -0.3062103 
C     1.4610785    0.4061272   -0.0361327 
O    -2.2737396    0.0729580    0.1559762 
H    -1.0258251    1.6588932    0.0192273 
H    -0.7778486    0.6745424    1.4696610 
H    -2.1590629   -0.8826651    0.2809762 
O     2.2534412   -0.0601974    0.7315218 
O     1.7381745    1.5609101   -0.6892675 
H     1.0170673    1.8001078   -1.2865406 
N    -0.0380912   -1.5756959    0.1538139 
H    -0.1205962   -0.1764803   -1.3808697 
H     0.4946913   -1.6887880    1.0115119 
H     0.3528699   -2.2227920   -0.5191521 
