14
Energy = -398.8327910
C    -1.3373082    0.6445300   -0.0041066 
C    -0.3058708   -0.4383133   -0.3130811 
C     1.0685054    0.1794893   -0.5457017 
O    -1.0539742    1.3267073    1.2058394 
H    -2.3075104    0.1655998    0.1259555 
H    -1.4016554    1.3411802   -0.8475823 
H    -0.2205359    1.7980981    1.0663835 
O     1.4210116    1.2836717   -0.2012153 
O     1.9108573   -0.6843512   -1.1517148 
H     2.7782624   -0.2520299   -1.2114242 
N    -0.2727841   -1.4091799    0.7784816 
H    -0.5990366   -0.9557057   -1.2310546 
H    -0.1602604   -0.9233512    1.6614911 
H     0.4802993   -2.0763452    0.6677296 
