14
Energy = -398.8304014
C    -1.2897109    0.3226221   -0.1148731 
C    -0.0177045   -0.5456616   -0.0228125 
C     1.2436628    0.2787198    0.1405173 
O    -1.4522314    0.9748767   -1.3575639 
H    -1.3082175    1.0236458    0.7277369 
H    -2.1440330   -0.3448690   -0.0027433 
H    -0.7104791    1.5795031   -1.4763614 
O     2.1479084    0.0305103    0.8921663 
O     1.2703439    1.3560612   -0.6861003 
H     2.1085820    1.8181398   -0.5265667 
N    -0.1281574   -1.4557637    1.1043703 
H     0.0912330   -1.0479381   -0.9972946 
H     0.7869483   -1.6783441    1.4763190 
H    -0.5981446   -2.3115024    0.8432061 
