14
Energy = -398.8312022
C    -1.1915162    0.4211557   -0.1119892 
C    -0.0399831   -0.5345899   -0.3954450 
C     1.3086961    0.1826551   -0.2835983 
O    -1.0389996    0.8791156    1.2299753 
H    -2.1277289   -0.1315197   -0.2348342 
H    -1.1652220    1.2556958   -0.8171223 
H    -1.8127671    1.3931581    1.4792513 
O     2.2367337   -0.1861114    0.3842932 
O     1.3674123    1.2775858   -1.0774985 
H     2.2509998    1.6623480   -0.9660827 
N    -0.1463497   -1.7065343    0.4488451 
H    -0.1302600   -0.8359983   -1.4455876 
H    -0.2039146   -1.4074496    1.4166172 
H     0.6928993   -2.2695110    0.3731759 
