14
Energy = -398.8271298
C    -0.8656484    0.7444431   -0.5243151 
C     0.1329932   -0.4240182   -0.3557437 
C     1.5097939    0.1745473   -0.1533529 
O    -2.1759811    0.2741733   -0.7911805 
H    -0.5737927    1.3533092   -1.3803397 
H    -0.8468371    1.3749712    0.3731998 
H    -2.5567537   -0.0579918    0.0285818 
O     2.2471683    0.5138318   -1.0404525 
O     1.7993571    0.3690718    1.1542189 
H     2.6743007    0.7865299    1.1929412 
N    -0.1995915   -1.3750106    0.6932658 
H     0.1695574   -0.9618700   -1.3038052 
H    -1.0809152   -1.8324339    0.4999910 
H    -0.2336510   -0.9395531    1.6069910 
