14
Energy = -398.8281208
C    -1.0119516    0.5693562    0.3999583 
C    -0.0028005   -0.2342005   -0.4516986 
C     1.2826726    0.5613265   -0.5264935 
O    -2.2632311   -0.0997450    0.4658194 
H    -1.1190385    1.5831974    0.0007176 
H    -0.6506815    0.6342308    1.4278779 
H    -2.7207840    0.0144853   -0.3747846 
O     1.4802124    1.4647816   -1.2959031 
O     2.1748174    0.2024883    0.4243645 
H     2.9456188    0.7834241    0.3258129 
N     0.2053999   -1.5993036    0.0046290 
H    -0.3867791   -0.2609401   -1.4756766 
H    -0.6960511   -2.0093969    0.2242557 
H     0.7625964   -1.6097042    0.8511210 
