14
Energy = -398.8307588
C    -1.3377096    0.1505428   -0.0866131 
C     0.0157464   -0.5944647   -0.1013365 
C     1.1685605    0.3836576    0.1025739 
O    -1.5720915    0.9463024   -1.2285082 
H    -1.4185806    0.7386876    0.8389890 
H    -2.1141695   -0.6120290   -0.0667710 
H    -0.8344535    1.5591020   -1.3350191 
O     1.9411980    0.3771918    1.0222855 
O     1.2274656    1.3230574   -0.8820788 
H     1.9639768    1.9184130   -0.6674713 
N    -0.0051150   -1.6595282    0.8822383 
H     0.1227321   -1.0285986   -1.0991518 
H     0.0158222   -1.2699197    1.8190007 
H     0.8266182   -2.2324144    0.8018625 
