14
Energy = -398.8315379
C    -1.2923073    0.2332272   -0.2688731 
C    -0.0314872   -0.6326378   -0.3001551 
C     1.2423654    0.2109088   -0.2157970 
O    -1.3820752    0.9964458    0.9299471 
H    -2.1547002   -0.4324481   -0.2743595 
H    -1.3354020    0.8746676   -1.1507569 
H    -0.8351162    1.7837200    0.8318993 
O     2.2287262   -0.0842559    0.4031445 
O     1.1632272    1.3488337   -0.9530415 
H     2.0253045    1.7903670   -0.8866921 
N    -0.1029492   -1.6573687    0.7220260 
H     0.0059870   -1.1124400   -1.2875214 
H    -0.3335032   -1.2207194    1.6089978 
H     0.8019301   -2.0983001    0.8411819 
