14
Energy = -398.8296144
C    -0.8735011    0.3142229   -0.6566575 
C     0.1608857   -0.5021552    0.1354121 
C     1.4501034    0.2905070    0.1846481 
O    -2.0610404   -0.4697816   -0.6961657 
H    -0.5004644    0.5139979   -1.6670992 
H    -1.0482294    1.2679848   -0.1438268 
H    -2.7754666    0.0598434   -1.0634531 
O     1.8104732    0.9651631    1.1130118 
O     2.1453855    0.1985477   -0.9698221 
H     2.9287492    0.7640372   -0.8774384 
N    -0.2490500   -0.8416951    1.4839557 
H     0.3464664   -1.4190471   -0.4310795 
H    -1.2306222   -1.0906405    1.4868084 
H    -0.1036894   -0.0509847    2.1017062 
