14
Energy = -398.8259390
C    -0.7775047    0.9578357    0.3024136 
C    -0.2739496   -0.3960404   -0.2150420 
C     1.0919068   -0.3178680   -0.9093340 
O     0.0956805    1.4797084    1.2738823 
H    -1.7891309    0.8109019    0.7045389 
H    -0.8675819    1.7040590   -0.4935155 
H     0.3089041    0.7330327    1.8564562 
O     1.9636819   -1.1192397   -0.7239724 
O     1.2553299    0.6714545   -1.8089596 
H     0.5119622    1.2874206   -1.7828071 
N    -0.1552014   -1.2968590    0.9231628 
H    -0.9731628   -0.7556665   -0.9866283 
H     0.6146016   -1.9397384    0.7759467 
H    -1.0055357   -1.8190007    1.0838581 
