14
Energy = -398.8324546
C    -0.9792713    0.5327998    0.4319763 
C     0.1044697    0.0170721   -0.5074313 
C     1.3421350    0.9105901   -0.3290791 
O    -2.1182417   -0.3077935    0.2675657 
H    -1.1997197    1.5708846    0.1739582 
H    -0.6149627    0.4936442    1.4661229 
H    -2.7991373   -0.0390874    0.8926021 
O     1.3921918    2.0417242   -0.7286011 
O     2.3368406    0.3224234    0.3445631 
H     2.0162590   -0.5902719    0.5334407 
N     0.4285289   -1.3746287   -0.1817849 
H    -0.2463542    0.1485411   -1.5348820 
H     0.7334599   -1.8819842   -1.0037022 
H    -0.3961979   -1.8439138    0.1752517 
