14
Energy = -398.8289212
C    -1.0367274    0.8040698    0.0359608 
C     0.0054665   -0.2718491   -0.2100634 
C     1.3648037    0.3518665   -0.4625885 
O    -2.2925227    0.1324016    0.1410776 
H    -1.0360348    1.5170277   -0.7919580 
H    -0.7928425    1.3346223    0.9611539 
H    -2.9540735    0.7575615    0.4517650 
O     1.5828360    1.5190235   -0.6547091 
O     2.3391715   -0.5853981   -0.4866409 
H     3.1759016   -0.1233997   -0.6528261 
N     0.0697257   -1.1685480    0.9407329 
H    -0.2671720   -0.7866807   -1.1473962 
H     0.6988085   -1.9411312    0.7628097 
H    -0.8573406   -1.5395660    1.1126822 
