14
Energy = -398.8280477
C    -0.7899884    0.5370690   -0.8857915 
C    -0.2623609   -0.6359694   -0.0645655 
C     1.2505931   -0.8498224   -0.2056342 
O    -0.2779499    1.7884110   -0.4021321 
H    -1.8812093    0.5374797   -0.8494223 
H    -0.4701707    0.4612100   -1.9255199 
H    -0.7431209    1.9968709    0.4173733 
O     1.7556509   -1.9369487   -0.2637163 
O     2.0002984    0.2724690   -0.1886619 
H     1.4183200    1.0599374   -0.2045128 
N    -0.6432296   -0.4520656    1.3457004 
H    -0.7357979   -1.5477918   -0.4281301 
H     0.0414377    0.1151205    1.8338106 
H    -0.6624724   -1.3459695    1.8212023 
