14
Energy = -398.8306939
C    -1.1420185    0.8994267    0.1069607 
C    -0.2768192   -0.2486797   -0.4341499 
C     1.1266924    0.2714972   -0.6994698 
O    -0.7160182    1.2718998    1.3990155 
H    -2.1899309    0.5681188    0.1113981 
H    -1.0547969    1.7697777   -0.5414405 
H    -0.5550597    0.4389561    1.8696540 
O     1.3625511    1.2055994   -1.4170855 
O     2.0955677   -0.4357547   -0.0767332 
H     2.9416448   -0.0259337   -0.3169817 
N    -0.3079813   -1.3412858    0.5367725 
H    -0.6611741   -0.5295004   -1.4244431 
H     0.5104073   -1.9308146    0.4756931 
H    -1.1330644   -1.9133070    0.4108096 
