14
Energy = -398.8255980
C    -1.0093258    0.5414874   -0.3618283 
C     0.0053989   -0.5999514   -0.2852473 
C     1.4062993   -0.0687597   -0.0224566 
O    -0.5983475    1.4370618   -1.3850095 
H    -1.0593850    1.0415379    0.6119462 
H    -1.9947239    0.1096381   -0.5806044 
H    -1.1366406    2.2336394   -1.3471431 
O     2.3548783   -0.1933332   -0.7444611 
O     1.4704841    0.5696638    1.1738851 
H     2.3886081    0.8590698    1.2912127 
N    -0.3084778   -1.5964290    0.7358145 
H     0.0558469   -1.0963701   -1.2540472 
H    -1.1753434   -2.0731396    0.5200074 
H    -0.3992717   -1.1641152    1.6479317 
