24
 energy: -39.996008896604 gnorm: 0.003278896605 xtb: 6.6.0 (2ccbbd7)
C            1.21287927785364        2.54851250745024       -0.44277090391983
C           -0.04427791948883        2.71759771376813        0.12173371083537
C           -0.75821176438751        1.60167041642357        0.55048161739352
C            1.74818799066708        1.27826995097378       -0.57022368079641
C            1.04563828652918        0.15987858887380       -0.14013222962030
C           -0.21662182607952        0.34000505040176        0.41756444854574
O           -0.61075422492841        3.94472630772164        0.27633354101846
H           -0.00887044841040        4.62912416682846       -0.03979030004562
H           -0.77513996125213       -0.52131774164680        0.74962013439540
H            2.73594740503126        1.16531488914967       -0.99714664683332
H            1.77583234523062        3.41034827419187       -0.77758575623116
H           -1.73250745539665        1.74742074279161        0.98802406822262
C            1.61924073680818       -1.21851775982086       -0.31382090727286
C            1.17874053789381       -1.84855674532732       -1.65170869077723
H            1.27066529103761       -1.87316302617001        0.48542488009487
H            2.71074527882272       -1.17477105117501       -0.28463524810559
C           -0.30415966417366       -2.27158138839130       -1.60306902745520
O           -0.83295205172736       -2.71401674444546       -0.62294853059046
O           -0.92322042535009       -2.12812989740174       -2.76967513986865
H           -0.28905157290892       -1.71609119113069       -3.39623992567771
N            1.36823917401812       -1.01634000929930       -2.83398812027115
H            1.73750067192424       -2.78176133638471       -1.80123485208090
H            1.07852635400585       -0.06344678495873       -2.62879837342989
H            2.34138666428111       -0.98572653242249       -3.10879216752965
