24
 energy: -4.358394820938 gnorm: 0.000037054106 xtb: 6.6.0 (2ccbbd7)
C            1.30644704770880        2.58815729508204       -0.24671372702404
C           -0.02333944200689        2.73920219955023        0.14765445367488
C           -0.78535065495646        1.58988878962343        0.35384706612807
C            1.84752290280258        1.33657045621799       -0.42251338173557
C            1.08831826189795        0.19494073915139       -0.20910132970252
C           -0.23589139909635        0.34391896096466        0.17546070301454
O           -0.59681370958921        3.98172295914514        0.33405469605781
H            0.05991042529598        4.68810684337553        0.15376512357135
H           -0.83733825813365       -0.53847340480049        0.31363547581162
H            2.87426824046250        1.23394312066359       -0.72879111375093
H            1.90530238420365        3.46582606424194       -0.41194689712423
H           -1.81303974646778        1.70430279633623        0.64979576647068
C            1.67433651103059       -1.16873007510734       -0.41573956143239
C            1.14469472585414       -1.87786241881629       -1.67129417077900
H            1.45439432220634       -1.78552959283553        0.46218021223087
H            2.76468308482452       -1.08910259991981       -0.46757034627232
C           -0.31248992893118       -2.27463547561137       -1.50971833242325
O           -0.73697436455141       -2.48034782105728       -0.39319632946392
O           -1.03161092111075       -2.37647775549343       -2.65204433995932
H           -0.46388053650895       -2.17776338511089       -3.43141796469893
N            1.30603104864005       -1.05979254742103       -2.86238898618149
H            1.70793295502013       -2.81151198781212       -1.82930897464443
H            0.75965471136114       -0.21714163355573       -2.75888671803398
H            2.27099504004531       -0.77976312681022       -2.97313942373317
