27
Energy =
C    -1.5012271    0.7240922    0.6587803 
C    -1.0281695   -0.1907290   -0.2338280 
C     0.2437702   -0.0645654   -0.6659663 
C    -0.6960744    1.7380695    1.0977850 
C     0.5873091    1.8433861    0.6476861 
C     1.0386693    0.9203791   -0.2424310 
N     0.9240782   -0.9094254   -1.5805511 
C     2.2443913    0.7961637   -0.8257452 
C     2.2137545   -0.2836358   -1.6274836 
H     0.5793306   -1.7528729   -2.0943840 
C     3.4549883    1.6875123   -0.6231150 
C     4.5193615    1.0990458    0.3406351 
H     3.1381004    2.6843660   -0.2511465 
H     3.9225942    1.8833156   -1.6160638 
C     5.3766701    0.0081004   -0.3141674 
N     3.9165051    0.6850567    1.6250785 
H     5.2554296    1.9088223    0.5570980 
H     3.2729282    1.4270741    1.9820557 
H     3.3459196   -0.1893469    1.4914888 
H    -2.5228418    0.6459188    1.0229735 
H    -1.6521219   -1.0031886   -0.5910647 
H    -1.0816253    2.4642796    1.8098247 
H     1.2191719    2.6508682    1.0017505 
H     3.0648685   -0.6685324   -2.1897659 
O     6.5778192    0.3825189   -0.9144287 
O     4.9583005   -1.3276082   -0.4073151 
H     4.0469632   -1.5176613   -0.0044598 
