27
Energy =
C    -0.4372162    2.7694055    1.4086370 
C    -0.7779159    1.5547897    0.8912795 
C     0.1729888    0.8431769    0.2504750 
C     0.8381326    3.2440113    1.2713885 
C     1.7808199    2.5070561    0.6165889 
C     1.4193368    1.2987866    0.1129657 
N     0.0242918   -0.4265649   -0.3685270 
C     2.1450206    0.3990970   -0.5688376 
C     1.3465178   -0.6364996   -0.8833882 
H    -0.8161065   -1.0463343   -0.4242126 
C     3.5943546    0.5316357   -0.9843721 
C     3.7483499    1.3233354   -2.3043103 
H     4.0508659   -0.4773562   -1.1006355 
H     4.1669724    1.0317817   -0.1738156 
C     3.1186046    0.5938686   -3.4860695 
N     5.1723987    1.6171860   -2.5417749 
H     3.1862688    2.2840366   -2.2342280 
H     5.5181153    2.3102580   -1.8303733 
H     5.7374925    0.7463708   -2.4184317 
H    -1.1838840    3.3642594    1.9288992 
H    -1.7864105    1.1664170    0.9857360 
H     1.1011191    4.2152275    1.6837973 
H     2.7914221    2.8877152    0.5039559 
H     1.6459465   -1.4943439   -1.4820355 
O     1.7799556    0.8104712   -3.7755832 
O     3.8151668   -0.3384468   -4.2451209 
H     4.7892354   -0.2869453   -3.9859144 
