27
Energy =
C    -1.1846157    3.0544954   -0.0746919 
C    -1.1813809    1.7026579    0.1014936 
C     0.0034836    1.0569712    0.0752693 
C    -0.0102894    3.7261758   -0.2741068 
C     1.1746177    3.0501894   -0.2968689 
C     1.1542358    1.7046145   -0.1167870 
N     0.2240173   -0.3378891    0.2302046 
C     2.1652043    0.8205542   -0.0952828 
C     1.6498510   -0.4064051    0.0993196 
H    -0.4682102   -1.1041359    0.3964751 
C     3.6363441    1.1069835   -0.3011725 
C     4.0273718    1.0104626   -1.7864785 
H     4.2289099    0.3721510    0.2896501 
H     3.9005739    2.1107144    0.0966408 
C     5.5405390    0.9946219   -1.9440057 
N     3.3961476    2.1184915   -2.5275803 
H     3.6656912    0.0361538   -2.1934038 
H     3.9204563    3.0058556   -2.3262086 
H     3.5178214    1.9455625   -3.5533847 
H    -2.1251963    3.5995352   -0.0596993 
H    -2.1040593    1.1540158    0.2573420 
H    -0.0215248    4.8038624   -0.4187498 
H     2.1054923    3.5821107   -0.4633105 
H     2.2271539   -1.3277663    0.1403635 
O     6.2011890   -0.1989453   -2.2053370 
O     6.2798459    2.1594000   -1.7748836 
H     7.2605623    1.9417840   -1.9006833 
