27
Energy =
C    -1.3320921    3.3151559   -0.3781633 
C    -1.2753076    2.1163351   -1.0249276 
C    -0.1387585    1.3940752   -0.9347665 
C    -0.2567162    3.7639042    0.3374943 
C     0.8813137    3.0143050    0.4127391 
C     0.9140382    1.8225474   -0.2358244 
N     0.1271141    0.1338237   -1.5340943 
C     1.8967164    0.9106223   -0.3165654 
C     1.4691091   -0.1036533   -1.0895717 
H    -0.4911335   -0.4589313   -2.1344114 
C     3.2749861    0.9915593    0.3028552 
C     4.2616690    1.7442358   -0.6069354 
H     3.6463929   -0.0425258    0.4840807 
H     3.2296439    1.4817817    1.2992927 
C     5.7001988    1.4782348   -0.1825400 
N     3.9254236    3.1814298   -0.5953963 
H     4.1730146    1.3447676   -1.6462192 
H     4.2804313    3.6050322    0.2974302 
H     4.4624899    3.6547726   -1.3611403 
H    -2.2348733    3.9182307   -0.4360083 
H    -2.1176336    1.7478810   -1.6005972 
H    -0.3081671    4.7250832    0.8440489 
H     1.7428039    3.3720992    0.9673186 
H     2.0573983   -0.9801989   -1.3531565 
O     6.5389832    0.7251820   -0.9935973 
O     6.1781299    1.9511356    1.0329734 
H     7.1430688    1.6619621    1.1300599 
