27
Energy =
C    -1.3073995    3.0753320   -0.5007677 
C    -1.3142046    1.7460356   -0.8017682 
C    -0.1514435    1.0657220   -0.7215243 
C    -0.1450767    3.6911140   -0.1277777 
C     1.0177458    2.9821669   -0.0536416 
C     0.9887696    1.6581723   -0.3595813 
N     0.0534908   -0.3137596   -0.9899464 
C     1.9779150    0.7473629   -0.3661210 
C     1.4585763   -0.4367340   -0.7366443 
H    -0.6356420   -1.0413601   -1.2891374 
C     3.4389005    0.9691692   -0.0340297 
C     4.3338290    0.9381830   -1.2974619 
H     3.7568583    0.1630141    0.6659434 
H     3.5949370    1.9250072    0.5109997 
C     5.7998081    0.8523516   -0.9043095 
N     4.0425970    2.0804988   -2.2001556 
H     4.1447318   -0.0077483   -1.8562904 
H     3.3077613    2.7157977   -1.8140827 
H     4.8896702    2.6851228   -2.3365025 
H    -2.2300969    3.6475932   -0.5575485 
H    -2.2274713    1.2417862   -1.0991029 
H    -0.1471966    4.7519633    0.1112839 
H     1.9354173    3.4790149    0.2432511 
H     2.0214151   -1.3627200   -0.8333579 
O     6.4648537    1.9637118   -0.3972670 
O     6.4715445   -0.3588472   -0.9986830 
H     7.4252832   -0.2280284   -0.6858371 
