27
Energy =
C    -0.8486978    3.5863840   -0.6323054 
C    -1.1668164    2.3012129   -0.9564734 
C    -0.2127851    1.3549002   -0.8320451 
C     0.4089506    3.8951072   -0.1934709 
C     1.3556662    2.9201983   -0.0730839 
C     1.0169592    1.6464389   -0.4030198 
N    -0.3384651   -0.0313825   -1.1170342 
C     1.7515139    0.5211791   -0.3781758 
C     0.9790740   -0.4966905   -0.7985346 
H    -1.1713303   -0.5632475   -1.4599631 
C     3.2021643    0.3802825    0.0346358 
C     4.1975940    0.6224617   -1.1186436 
H     3.3686722   -0.6454996    0.4325692 
H     3.4243971    1.0745058    0.8749968 
C     4.1899916    2.0757249   -1.6122422 
N     4.0036318   -0.3905994   -2.1767943 
H     5.2174303    0.4768156   -0.6916959 
H     3.1204997   -0.1899391   -2.7087730 
H     4.7730611   -0.2879056   -2.8799279 
H    -1.5956637    4.3701128   -0.7313150 
H    -2.1580972    2.0405172   -1.3113184 
H     0.6596950    4.9252189    0.0499413 
H     2.3583228    3.1735200    0.2599500 
H     1.3056311   -1.5303684   -0.8907445 
O     5.0277344    2.9923482   -0.9808414 
O     3.3094731    2.5354443   -2.6010530 
H     2.6392991    1.8484957   -2.9256613 
