27
Energy =
C    -1.2035435    1.2919916   -1.6153963 
C    -0.8431244    0.1793800   -0.9142867 
C     0.4133228    0.1100378   -0.4265962 
C    -0.3051970    2.3049128   -1.8103524 
C     0.9586447    2.2114507   -1.3057950 
C     1.2951760    1.0934989   -0.6126116 
N     0.9829581   -0.9466978    0.3330413 
C     2.4533527    0.7650252   -0.0189969 
C     2.3052102   -0.4396086    0.5597398 
H     0.5537201   -1.8481143    0.6447233 
C     3.7082315    1.6094383    0.0536367 
C     3.6143573    2.7276438    1.1254692 
H     3.8648874    2.0367105   -0.9576328 
H     4.5819294    0.9578524    0.2835869 
C     4.8847819    3.6032924    1.2361745 
N     3.2809344    2.0997959    2.4214460 
H     2.8008248    3.4318360    0.8376171 
H     3.3280876    2.8113379    3.1901694 
H     2.2810191    1.7889815    2.4125912 
H    -2.2094168    1.3740452   -2.0200579 
H    -1.5435111   -0.6322134   -0.7482525 
H    -0.5995591    3.1896225   -2.3701289 
H     1.6707618    3.0163578   -1.4608082 
H     3.0697535   -0.9476443    1.1439774 
O     5.1037569    4.3204812    2.4078126 
O     5.7778267    3.8205236    0.1814869 
H     5.5424163    3.3361608   -0.6648037 
