27
Energy =
C    -1.3593262    0.5688398    0.9005599 
C    -0.9286057   -0.3855667    0.0276515 
C     0.3000931   -0.2491262   -0.5143145 
C    -0.5556808    1.6305252    1.2115382 
C     0.6820682    1.7456976    0.6503766 
C     1.0900316    0.7843615   -0.2175574 
N     0.9373682   -1.1304951   -1.4281524 
C     2.2473791    0.6611312   -0.8891653 
C     2.1965049   -0.4711052   -1.6126798 
H     0.5786512   -2.0154165   -1.8528967 
C     3.4462655    1.5843605   -0.8267215 
C     4.4694588    1.1240558    0.2402268 
H     3.1205038    2.6287350   -0.6258433 
H     3.9348996    1.5947509   -1.8268064 
C     3.8898857    1.1653312    1.6556190 
N     5.7039011    1.9337858    0.1506324 
H     4.7133154    0.0504509    0.0518029 
H     6.5116968    1.3169381   -0.1040673 
H     5.6510368    2.6755783   -0.5873891 
H    -2.3421706    0.4818849    1.3565076 
H    -1.5502929   -1.2375204   -0.2245905 
H    -0.9003015    2.3833015    1.9162304 
H     1.3207941    2.5839391    0.9091355 
H     3.0022505   -0.8475197   -2.2384683 
O     3.4930265   -0.0188183    2.2660243 
O     3.7038960    2.3675614    2.3394058 
H     4.1070102    3.1326354    1.8203606 
