27
Energy =
C    -0.9365640    2.6168765    0.0756137 
C    -0.9644433    1.4722461   -0.6647406 
C     0.2084184    0.8753713   -0.9637013 
C     0.2560994    3.1335304    0.5013777 
C     1.4282679    2.5102257    0.1881211 
C     1.3758701    1.3744244   -0.5546404 
N     0.3990511   -0.3229690   -1.7025111 
C     2.3689546    0.5801803   -0.9835149 
C     1.8270751   -0.4486166   -1.6580615 
H    -0.3110937   -0.9416933   -2.1567266 
C     3.8456716    0.7513377   -0.7094150 
C     4.2359090    0.1439436    0.6480102 
H     4.1024865    1.8333328   -0.7352008 
H     4.4416297    0.2679849   -1.5153939 
C     5.6466215    0.5612787    1.0332198 
N     4.0790166   -1.3210059    0.5835363 
H     3.5620057    0.5533898    1.4371605 
H     4.8761755   -1.7294114    0.0346969 
H     4.1723164   -1.7080395    1.5521641 
H    -1.8665551    3.1181152    0.3318104 
H    -1.9018384    1.0456296   -1.0049686 
H     0.2701387    4.0440094    1.0958763 
H     2.3735282    2.9181346    0.5347115 
H     2.3867358   -1.2802687   -2.0805942 
O     5.8450920    1.5586134    1.9796012 
O     6.7457506   -0.0011156    0.3949328 
H     7.5881210    0.4131675    0.7742230 
