27
Energy =
C    -1.0836931    3.4120670    0.7520444 
C    -1.1020846    2.0813699    1.0492103 
C    -0.0530560    1.3255464    0.6624034 
C    -0.0222973    3.9539110    0.0805395 
C     1.0266433    3.1688804   -0.2985779 
C     0.9849524    1.8465336    0.0066426 
N     0.1301191   -0.0667279    0.8787243 
C     1.8781214    0.8772900   -0.2451140 
C     1.4085013   -0.2750917    0.2638896 
H    -0.4980202   -0.7514261    1.3593037 
C     3.2137793    1.0365647   -0.9337862 
C     4.2850170    1.6163838    0.0108581 
H     3.0908876    1.6908201   -1.8259264 
H     3.5671105    0.0535894   -1.3189450 
C     5.4989911    2.0769923   -0.7809609 
N     4.6513360    0.5989417    1.0115865 
H     3.8881649    2.5270701    0.5191380 
H     5.4461813    0.9653385    1.5902751 
H     3.8559812    0.4810443    1.6825386 
H    -1.9155730    4.0449198    1.0516373 
H    -1.9347134    1.6362462    1.5835321 
H    -0.0133989    5.0164424   -0.1515792 
H     1.8696246    3.6021749   -0.8293743 
H     1.9293916   -1.2301800    0.2341392 
O     6.1744037    3.2284068   -0.4040811 
O     5.9720637    1.3366051   -1.8559504 
H     6.5406344    0.5848263   -1.4935002 
