27
Energy =
C    -0.7149435    3.4827726    0.3435704 
C    -1.0848082    2.2025839    0.0549704 
C    -0.1144995    1.2864323   -0.1452217 
C     0.6089936    3.8168452    0.4218188 
C     1.5713058    2.8730554    0.2129450 
C     1.1789432    1.6039672   -0.0694518 
N    -0.2829183   -0.0867057   -0.4684132 
C     1.9163736    0.5110190   -0.3196341 
C     1.0830405   -0.5137265   -0.5720771 
H    -1.1653602   -0.6346459   -0.5922229 
C     3.4260221    0.4310082   -0.3784530 
C     3.9733960    0.8748733   -1.7562693 
H     3.7575295   -0.6128584   -0.1729180 
H     3.8557890    1.0691900    0.4232145 
C     3.4933982   -0.0305810   -2.8837459 
N     5.4508643    0.9331516   -1.7344441 
H     3.5644544    1.8869413   -1.9860546 
H     5.7701546    1.9062639   -1.9531140 
H     5.8565973    0.6763353   -0.8040121 
H    -1.4759458    4.2412678    0.5085288 
H    -2.1301364    1.9219960   -0.0163119 
H     0.8958219    4.8407494    0.6488619 
H     2.6218761    3.1415625    0.2702304 
H     1.3997437   -1.5179270   -0.8534035 
O     3.2121122    0.5072142   -4.1356754 
O     3.3286984   -1.4001118   -2.6834748 
H     3.0643357   -1.8232704   -3.5636152 
