27
Energy =
C    -1.4681128    2.5986193    0.1828562 
C    -1.1939167    1.3971698    0.7666456 
C     0.0492764    0.8895596    0.6311743 
C    -0.4986666    3.2613413   -0.5186366 
C     0.7503749    2.7272421   -0.6406338 
C     0.9997757    1.5301342   -0.0506699 
N     0.5408057   -0.3344498    1.1595736 
C     2.1284856    0.8045507   -0.0202687 
C     1.8961866   -0.3113811    0.6928295 
H     0.0453568   -1.0533054    1.7358518 
C     3.4573858    1.1745642   -0.6382305 
C     4.2099548    2.2404905    0.1912593 
H     3.2765761    1.5592486   -1.6685494 
H     4.0948340    0.2700455   -0.7587985 
C     5.3886642    2.7840353   -0.5970062 
N     4.6347637    1.6880066    1.4909828 
H     3.5480947    3.1202190    0.3671037 
H     3.7951835    1.4240486    2.0574594 
H     5.2037624    0.8204569    1.3370372 
H    -2.4613516    3.0312597    0.2755765 
H    -1.9509101    0.8587470    1.3269534 
H    -0.7237442    4.2191282   -0.9821133 
H     1.5185724    3.2549839   -1.1991101 
H     2.6300327   -1.0879058    0.8973699 
O     5.2063678    3.8650756   -1.4471640 
O     6.6254191    2.1543746   -0.5589319 
H     7.1095866    2.4639768    0.2709845 
