27
Energy =
C    -1.5511954    0.8085045   -0.8306076 
C    -1.0743623   -0.3863968   -0.3794181 
C     0.1533032   -0.4147694    0.1798534 
C    -0.7928576    1.9408648   -0.7163540 
C     0.4464486    1.8860786   -0.1495080 
C     0.8987658    0.6856329    0.2961767 
N     0.8361225   -1.5488850    0.6950644 
C     2.0664706    0.3678267    0.8752938 
C     2.0726775   -0.9553044    1.1176881 
H     0.5191037   -2.5439354    0.7552466 
C     3.2218218    1.3032274    1.1573384 
C     4.1267425    1.4905029   -0.0770138 
H     3.8312380    0.9107214    2.0027131 
H     2.8299319    2.2879400    1.4901572 
C     4.7522921    0.1785765   -0.5342335 
N     5.1546197    2.4936691    0.2461055 
H     3.5129697    1.8496608   -0.9360926 
H     5.8223144    2.5652836   -0.5595455 
H     4.7021137    3.4336173    0.3285201 
H    -2.5366687    0.8600609   -1.2867501 
H    -1.6606352   -1.2948169   -0.4681525 
H    -1.1788015    2.8891999   -1.0826497 
H     1.0485839    2.7859535   -0.0659305 
H     2.9140789   -1.5049466    1.5398965 
O     5.1687011   -0.7820016    0.3851517 
O     4.9077513   -0.0700255   -1.8926778 
H     5.3564937   -0.9686297   -2.0174264 
