27
Energy =
C    -1.2299772    2.4996265   -1.1097695 
C    -1.1988607    1.2248912   -0.6298585 
C     0.0027214    0.6662161   -0.3744817 
C    -0.0657681    3.1813887   -1.3280035 
C     1.1370435    2.5940366   -1.0654788 
C     1.1461994    1.3235447   -0.5793441 
N     0.2495659   -0.6458482    0.1036026 
C     2.1823749    0.5277241   -0.2502775 
C     1.6810621   -0.6606528    0.1421361 
H    -0.4313765   -1.3982448    0.3564234 
C     3.6581029    0.8704433   -0.3901889 
C     4.5565417    0.2844678    0.7359370 
H     3.7700866    1.9760061   -0.3727629 
H     4.0243108    0.5442198   -1.3885849 
C     5.8299857    1.0977760    0.8922786 
N     4.8909280   -1.1338267    0.4860294 
H     4.0298345    0.3905111    1.7146888 
H     4.4664307   -1.7419310    1.2243953 
H     4.5695152   -1.4732941   -0.4505431 
H    -2.1845183    2.9740626   -1.3237198 
H    -2.1131411    0.6669965   -0.4580076 
H    -0.0987927    4.1968447   -1.7159748 
H     2.0538905    3.1427292   -1.2518104 
H     2.2603261   -1.5306658    0.4290616 
O     6.6341043    1.3779338   -0.2087474 
O     6.1772559    1.6151447    2.1345578 
H     7.0588855    2.1038563    2.0473383 
