27
Energy =
C    -0.7707324    2.6640248    1.0998813 
C    -0.8730679    1.3502319    0.7512913 
C     0.2056290    0.7457200    0.2103653 
C     0.4024618    3.3387304    0.9051124 
C     1.4798829    2.7039327    0.3598650 
C     1.3534575    1.3970283    0.0128334 
N     0.3107225   -0.6088671   -0.2031354 
C     2.2518757    0.5543044   -0.5263353 
C     1.6670803   -0.6498828   -0.6643672 
H    -0.4064740   -1.3694686   -0.1700697 
C     3.6866196    0.8671582   -0.9095518 
C     3.8345264    1.4593293   -2.3359250 
H     4.3006149   -0.0577312   -0.8359502 
H     4.1193450    1.5764896   -0.1701373 
C     3.0712986    2.7666769   -2.5056857 
N     3.5442005    0.4503830   -3.3849492 
H     4.8994972    1.7642101   -2.4548721 
H     3.1760647   -0.4413711   -2.9854732 
H     2.7956716    0.7893274   -4.0379035 
H    -1.6258840    3.1769167    1.5331307 
H    -1.7954219    0.7992264    0.9010468 
H     0.4766792    4.3872668    1.1829972 
H     2.4102697    3.2419020    0.2071672 
H     2.1521377   -1.5405363   -1.0558327 
O     1.7695948    2.7858717   -2.9954651 
O     3.6542876    3.9595295   -2.0983906 
H     3.0179056    4.7189463   -2.3060712 
