27
Energy =
C    -1.0072409    3.6435299    0.8446370 
C    -1.0451794    2.3600287    1.3035983 
C    -0.0766239    1.5091981    0.9042396 
C    -0.0056025    4.0456710    0.0042966 
C     0.9631295    3.1669425   -0.3830848 
C     0.9022734    1.8933179    0.0836441 
N     0.0757410    0.1459837    1.2738491 
C     1.7238565    0.8556195   -0.1382850 
C     1.2723231   -0.1989155    0.5622083 
H    -0.5225350   -0.4456768    1.8946398 
C     2.9837887    0.8611991   -0.9738601 
C     4.1857823    1.3927586   -0.1709352 
H     2.8202022    1.4837040   -1.8814727 
H     3.2026128   -0.1687585   -1.3357977 
C     5.3740875    1.6591969   -1.0795821 
N     4.5049416    0.4409787    0.9095149 
H     3.9210246    2.3825352    0.2710076 
H     4.8736266   -0.4472542    0.4907054 
H     5.2829847    0.8318170    1.4924704 
H    -1.7748168    4.3501814    1.1505119 
H    -1.8292728    2.0254267    1.9743748 
H     0.0206974    5.0714722   -0.3556334 
H     1.7606759    3.4892253   -1.0462207 
H     1.7601413   -1.1698613    0.6097462 
O     6.1002170    0.6076352   -1.6280145 
O     5.7211521    2.9652058   -1.3974662 
H     6.5213962    2.9478471   -2.0171976 
