27
Energy =
C    -1.3451239    2.2213866   -1.1362284 
C    -1.0534326    0.8947062   -1.2481510 
C     0.1826353    0.4799547   -0.9000015 
C    -0.3987702    3.0991345   -0.6855203 
C     0.8445034    2.6557125   -0.3422914 
C     1.1118403    1.3280284   -0.4559092 
N     0.6894926   -0.8436398   -0.9596387 
C     2.2441858    0.6537137   -0.1919608 
C     2.0315004   -0.6448835   -0.4955920 
H     0.2179991   -1.7239150   -1.2708038 
C     3.5515961    1.2801303    0.2756687 
C     4.5594784    0.2968920    0.9225697 
H     3.3222904    2.0701726    1.0252678 
H     4.0301800    1.7683843   -0.6010198 
C     3.9370705   -0.4444597    2.1020296 
N     5.8163252    1.0003646    1.2774912 
H     4.8234905   -0.4873876    0.1779015 
H     5.8045685    2.0118506    1.0059936 
H     6.0053755    0.9712883    2.3070770 
H    -2.3338879    2.5826461   -1.4078150 
H    -1.7915684    0.1857363   -1.6079208 
H    -0.6386989    4.1563068   -0.6002190 
H     1.5934615    3.3575175    0.0117948 
H     2.7602470   -1.4463942   -0.4068186 
O     3.8805093   -1.8308054    2.0927503 
O     3.3776228    0.2475232    3.1689060 
H     4.1118273    0.5558227    3.7867680 
