27
Energy =
C    -1.3527705    2.3421509    0.2671296 
C    -1.2107639    1.0236132   -0.0476457 
C     0.0337840    0.5463174   -0.2589675 
C    -0.2535943    3.1490008    0.3662987 
C     0.9946754    2.6423578    0.1511618 
C     1.1128150    1.3263778   -0.1674523 
N     0.3954427   -0.7880412   -0.5837147 
C     2.2107160    0.5915272   -0.4196374 
C     1.8212565   -0.6721873   -0.6689010 
H    -0.2146975   -1.6270751   -0.7140295 
C     3.6520721    1.0674921   -0.4175171 
C     4.1177905    1.6507564   -1.7783233 
H     4.3205079    0.2255842   -0.1331338 
H     3.7830792    1.8368330    0.3750040 
C     3.2563380    2.8178125   -2.2336589 
N     4.2196135    0.6084648   -2.8217522 
H     5.1260749    2.0968097   -1.6113557 
H     5.2083318    0.5340020   -3.1561478 
H     3.9423362   -0.3368447   -2.4754072 
H    -2.3443438    2.7532838    0.4387358 
H    -2.0720614    0.3695067   -0.1288608 
H    -0.3751421    4.2009629    0.6148548 
H     1.8650615    3.2876737    0.2277053 
H     2.4879198   -1.5004540   -0.8929119 
O     3.4895533    4.0859261   -1.7093644 
O     2.1818562    2.6363022   -3.0957221 
H     1.7325677    3.5277237   -3.2477531 
