27
Energy =
C    -1.4389456    1.7508626    0.6141840 
C    -1.2429198    0.7952723   -0.3376889 
C     0.0229101    0.5171389   -0.7140579 
C    -0.3712265    2.4028681    1.1656487 
C     0.8990278    2.1039914    0.7690922 
C     1.0717738    1.1489055   -0.1823786 
N     0.4386879   -0.4366424   -1.6807637 
C     2.1992944    0.6736737   -0.7401963 
C     1.8611624   -0.2700805   -1.6370915 
H    -0.1389728   -1.0858019   -2.2628430 
C     3.6228035    1.1025344   -0.4513749 
C     4.2235081    1.9413194   -1.6060439 
H     4.2354512    0.1851551   -0.2965616 
H     3.6939213    1.6766903    0.4973762 
C     5.7283620    2.0794976   -1.4259141 
N     3.5353556    3.2486579   -1.7441023 
H     4.1027411    1.3853000   -2.5642707 
H     2.7953235    3.3875573   -1.0191182 
H     4.2063627    4.0441548   -1.6087668 
H    -2.4483912    1.9954845    0.9354690 
H    -2.0787584    0.2685430   -0.7856264 
H    -0.5350392    3.1645196    1.9242792 
H     1.7400105    2.6273965    1.2117121 
H     2.5634050   -0.8300036   -2.2512242 
O     6.5932778    1.3183912   -2.2031856 
O     6.2496240    2.9054322   -0.4369512 
H     7.2599897    2.8546635   -0.4659121 
