27
Energy =
C    -0.7142235    3.7057304   -0.3430492 
C    -1.0635271    2.3928655   -0.2330236 
C    -0.0793736    1.4708507   -0.1831429 
C     0.6036393    4.0652617   -0.4011955 
C     1.5805135    3.1145440   -0.3467064 
C     1.2099003    1.8123590   -0.2374913 
N    -0.2300664    0.0624846   -0.0764205 
C     1.9621253    0.7006227   -0.1701596 
C     1.1396952   -0.3599593   -0.0799231 
H    -1.1041366   -0.5081144   -0.0075707 
C     3.4744901    0.6087585   -0.2135534 
C     4.0374500    0.5275970   -1.6460497 
H     3.7969930   -0.3014856    0.3390693 
H     3.9222781    1.4727282    0.3232297 
C     3.7912976    1.8189271   -2.4313001 
N     3.5157585   -0.6760861   -2.3173215 
H     5.1413551    0.4142060   -1.5574222 
H     2.5242536   -0.5087443   -2.6181582 
H     4.0523856   -0.8195728   -3.2054019 
H    -1.4870825    4.4688844   -0.3926787 
H    -2.1044929    2.0901490   -0.1916542 
H     0.8749335    5.1136706   -0.5017734 
H     2.6251901    3.4044887   -0.4069232 
H     1.4646815   -1.3974802   -0.0377969 
O     2.6892944    1.9290305   -3.2703165 
O     4.5951214    2.9434997   -2.2396582 
H     5.3815301    2.7497509   -1.6372430 
