27
Energy =
C    -0.6223536    2.3255246   -1.8844302 
C    -0.9240943    1.4608470   -0.8747030 
C     0.0753535    1.0442629   -0.0692551 
C     0.6646825    2.7500098   -2.0665590 
C     1.6579375    2.3135273   -1.2398372 
C     1.3338736    1.4541008   -0.2388142 
N    -0.0233342    0.1433671    1.0245266 
C     2.1126058    0.8788776    0.6928185 
C     1.3415221    0.0875876    1.4592012 
H    -0.8660186   -0.3452949    1.4056346 
C     3.6080808    1.0337021    0.8593456 
C     4.3910116   -0.1430047    0.2316726 
H     3.8337327    1.0887429    1.9488992 
H     3.9623812    1.9964729    0.4309022 
C     5.8436898   -0.1046915    0.6639109 
N     4.2700561   -0.1272655   -1.2382114 
H     4.0050152   -1.1133450    0.6246241 
H     3.2687466   -0.2218797   -1.5267158 
H     4.6404979    0.7768203   -1.6193769 
H    -1.4081823    2.6771454   -2.5484531 
H    -1.9391655    1.1116641   -0.7184843 
H     0.8978555    3.4380909   -2.8758777 
H     2.6786170    2.6496135   -1.3920543 
H     1.6992544   -0.5187564    2.2893771 
O     6.6764779    0.9343244    0.2604219 
O     6.3314703   -1.0674944    1.5374417 
H     7.3115632   -0.8812985    1.7074061 
