27
Energy =
C    -1.7481372    1.5995887   -0.2872238 
C    -1.2981917    0.4088367    0.2004716 
C     0.0326873    0.1860493    0.2166617 
C    -0.8626066    2.5339702   -0.7480471 
C     0.4780090    2.2838646   -0.7229407 
C     0.9042990    1.0920333   -0.2289672 
N     0.7002192   -0.9815372    0.6675921 
C     2.1536354    0.6138298   -0.1032050 
C     2.0693994   -0.6272974    0.4184490 
H     0.3026984   -1.8587676    1.0748857 
C     3.4176260    1.3477037   -0.5342109 
C     4.7597866    0.7570416   -0.0302377 
H     3.3511768    2.3925755   -0.1610416 
H     3.4284499    1.3976290   -1.6462281 
C     5.2285801   -0.4531790   -0.8308777 
N     4.6792565    0.4774118    1.4151715 
H     5.5525805    1.5206232   -0.2110555 
H     5.6189079    0.1510509    1.7483352 
H     4.4831096    1.3703362    1.9267336 
H    -2.8152120    1.8051179   -0.3125074 
H    -1.9869559   -0.3453803    0.5654134 
H    -1.2290872    3.4800285   -1.1388260 
H     1.1786998    3.0254146   -1.0945777 
H     2.9157532   -1.2818539    0.6171694 
O     4.3310095   -1.2777656   -1.5019520 
O     6.5840325   -0.7469668   -0.8940637 
H     6.7081582   -1.5819649   -1.4517296 
