27
Energy =
C    -0.8612970    2.2270852    1.2540047 
C    -0.9237992    0.9804610    0.7052128 
C     0.1876792    0.4806768    0.1254658 
C     0.3030521    2.9432004    1.2073154 
C     1.4122654    2.4170385    0.6128507 
C     1.3274315    1.1720160    0.0774707 
N     0.3307374   -0.7794791   -0.5142791 
C     2.2575388    0.4446946   -0.5603366 
C     1.6994591   -0.7191252   -0.9385059 
H    -0.3697102   -1.5461398   -0.6380441 
C     3.6751791    0.8664232   -0.8780166 
C     3.7449954    1.7036670   -2.1675998 
H     4.3264356   -0.0314698   -0.9762813 
H     4.0879484    1.4571737   -0.0315091 
C     3.3306577    0.8960203   -3.4044864 
N     5.1072372    2.2457059   -2.2912469 
H     3.0365449    2.5560627   -2.0595751 
H     5.7739559    1.4684076   -2.5218909 
H     5.1387433    2.9099467   -3.1011362 
H    -1.7417975    2.6545020    1.7272334 
H    -1.8408201    0.4014991    0.7279719 
H     0.3442080    3.9383152    1.6438318 
H     2.3341752    2.9897654    0.5707313 
H     2.2008225   -1.4929734   -1.5190805 
O     3.7499807   -0.4237395   -3.5368805 
O     2.5817027    1.4658306   -4.4338000 
H     2.3679375    2.4356530   -4.2558460 
