27
Energy =
C    -1.1754073    1.3533136    1.1899621 
C    -1.0472908    0.3671595    0.2577302 
C     0.1234735    0.2614963   -0.4051064 
C    -0.1354259    2.2054839    1.4383665 
C     1.0384325    2.0775548    0.7556716 
C     1.1437534    1.0890689   -0.1699049 
N     0.4607112   -0.6932206   -1.4008956 
C     2.1749661    0.7537042   -0.9632168 
C     1.8077133   -0.3067677   -1.7059731 
H    -0.1192518   -1.4643195   -1.8046858 
C     3.5451539    1.4015955   -1.0084981 
C     4.5682141    0.7012277   -0.0897895 
H     3.4687623    2.4740607   -0.7309439 
H     3.9206939    1.3855607   -2.0569180 
C     4.8177176   -0.7444625   -0.5274322 
N     4.1287663    0.8141391    1.3142181 
H     5.5512753    1.2164041   -0.2118218 
H     4.8404421    0.3561868    1.9343360 
H     4.1245895    1.8239441    1.5937965 
H    -2.1069498    1.4603011    1.7398746 
H    -1.8609105   -0.3195954    0.0508084 
H    -0.2430486    2.9871196    2.1863229 
H     1.8632777    2.7515166    0.9602003 
H     2.4558858   -0.8291987   -2.4090599 
O     5.7645927   -0.9930190   -1.5120025 
O     4.0635777   -1.8103678   -0.0414588 
H     3.3905029   -1.4805284    0.6367185 
