27
Energy =
C    -1.3984362    0.7776772   -0.6323657 
C    -0.9298328   -0.1802043    0.2167973 
C     0.3573214   -0.1071535    0.6156174 
C    -0.5737790    1.7797432   -1.0631706 
C     0.7242161    1.8311313   -0.6469977 
C     1.1689087    0.8676726    0.2014187 
N     1.0396515   -1.0037741    1.4802966 
C     2.3844620    0.6878667    0.7450488 
C     2.3477148   -0.4194525    1.5067033 
H     0.6824967   -1.8586594    1.9653202 
C     3.6197238    1.5334997    0.5272449 
C     4.5760264    0.9165381   -0.5211181 
H     4.1525209    1.6301249    1.5000653 
H     3.3506630    2.5703662    0.2289060 
C     5.8994469    1.6641854   -0.5477628 
N     3.9532496    0.9035379   -1.8560180 
H     4.8213895   -0.1299364   -0.2267726 
H     3.1061445    0.2890028   -1.8541926 
H     3.6587904    1.8726293   -2.1244495 
H    -2.4313649    0.7429182   -0.9697966 
H    -1.5694179   -0.9840921    0.5651403 
H    -0.9544798    2.5387169   -1.7426843 
H     1.3752299    2.6257792   -0.9964841 
H     3.1915974   -0.8277854    2.0587189 
O     7.0968325    0.9803273   -0.3650823 
O     5.9219087    3.0461876   -0.7128467 
H     6.8846513    3.3571747   -0.7250119 
