27
Energy =
C    -1.2063426    3.0565775   -0.6240301 
C    -1.2718892    1.7306246   -0.9330167 
C    -0.1531884    0.9871525   -0.8029463 
C    -0.0305294    3.6067378   -0.1948468 
C     1.0869363    2.8340133   -0.0702208 
C     0.9988594    1.5151735   -0.3841217 
N    -0.0096817   -0.3998517   -1.0743314 
C     1.9365296    0.5532699   -0.3510023 
C     1.3746993   -0.5982335   -0.7598948 
H    -0.7232908   -1.0876480   -1.4086881 
C     3.3925455    0.7043819    0.0391554 
C     4.2989096    1.0824570   -1.1479107 
H     3.7563507   -0.2553999    0.4675430 
H     3.4951851    1.4629010    0.8454597 
C     3.9520681    2.4515068   -1.7194135 
N     4.2758906    0.0030515   -2.1525375 
H     5.3365253    1.1784722   -0.7537149 
H     3.3998671    0.0903310   -2.7254465 
H     5.0564362    0.1713819   -2.8298563 
H    -2.0918447    3.6794527   -0.7237190 
H    -2.1960444    1.2794186   -1.2781958 
H     0.0157709    4.6671620    0.0429070 
H     2.0216733    3.2770456    0.2625628 
H     1.8994802   -1.5462119   -0.8584522 
O     4.2781020    3.5990712   -1.0066481 
O     3.2410698    2.5756342   -2.9065917 
H     3.1041982    3.5589665   -3.1022872 
