27
Energy =
C    -1.1387529    3.3460451   -0.2277474 
C    -1.2206786    1.9956277   -0.0623389 
C    -0.0747710    1.2832723   -0.0377042 
C     0.0799168    3.9506702   -0.3640515 
C     1.2244378    3.2093013   -0.3357966 
C     1.1197427    1.8642038   -0.1703123 
N     0.0567651   -0.1218278    0.1213269 
C     2.0757970    0.9206720   -0.1101219 
C     1.4805181   -0.2728202    0.0624965 
H    -0.6858905   -0.8476984    0.2454139 
C     3.5735329    1.1164817   -0.2248648 
C     4.1312183    0.6011789   -1.5773030 
H     4.0546672    0.5607612    0.6119005 
H     3.8600448    2.1810363   -0.0845684 
C     5.6622498    0.5476512   -1.5816131 
N     3.6419511    1.4210152   -2.7063566 
H     3.8003829   -0.4557846   -1.7053395 
H     3.1922221    0.8007664   -3.4203950 
H     2.9087338    2.1096572   -2.4203267 
H    -2.0463052    3.9443013   -0.2508459 
H    -2.1793396    1.5000802    0.0475004 
H     0.1373751    5.0288301   -0.4952149 
H     2.1874171    3.6973981   -0.4456060 
H     2.0016389   -1.2240180    0.1472001 
O     6.3904594    1.0862720   -0.5244850 
O     6.3574813   -0.0665077   -2.6238070 
H     5.7343996   -0.3365841   -3.3704825 
