27
Energy =
C    -1.5917641    1.7832209    0.4598397 
C    -1.0340642    0.6213006    0.9059858 
C     0.2745745    0.4037048    0.6576582 
C    -0.8316108    2.6964667   -0.2184333 
C     0.4892926    2.4535161   -0.4549261 
C     1.0211700    1.2890479   -0.0035129 
N     1.0469913   -0.7253209    1.0420903 
C     2.2759675    0.8230910   -0.0989581 
C     2.3332934   -0.3704548    0.5161139 
H     0.7558870   -1.5795968    1.5708076 
C     3.4565374    1.5250409   -0.7288602 
C     4.0524202    2.5973742    0.2168813 
H     3.1333061    1.9846691   -1.6931388 
H     4.2435014    0.7815555   -0.9930858 
C     4.9797848    3.5407183   -0.5327981 
N     4.7120587    1.9510509    1.3687548 
H     3.2474435    3.2862895    0.5759413 
H     3.9948555    1.4905456    1.9877798 
H     5.3499343    1.1936931    1.0330649 
H    -2.6443541    1.9843882    0.6448227 
H    -1.6208515   -0.1128862    1.4477161 
H    -1.2805925    3.6217591   -0.5719829 
H     1.0909020    3.1808730   -0.9923286 
H     3.2328570   -0.9746079    0.6206881 
O     4.4142214    4.5587028   -1.2840975 
O     6.3597162    3.3930988   -0.5455921 
H     6.6109857    2.6487078    0.0856627 
