27
Energy =
C    -0.7952145    2.7494103   -2.1133122 
C    -0.8704705    1.4601672   -1.6756672 
C     0.2082465    0.9288391   -1.0628827 
C     0.3489506    3.4751950   -1.9260306 
C     1.4250504    2.9161749   -1.3016858 
C     1.3284485    1.6294691   -0.8785366 
N     0.3316204   -0.3793607   -0.5224194 
C     2.2271928    0.8636343   -0.2405882 
C     1.6665547   -0.3344357    0.0004715 
H    -0.3622966   -1.1618873   -0.5116556 
C     3.6129360    1.2748164    0.2046444 
C     3.5681650    1.9954141    1.5657093 
H     4.0628020    1.9389874   -0.5661375 
H     4.2610093    0.3739022    0.2660331 
C     4.8730183    2.7343400    1.8697293 
N     3.1998335    1.0296995    2.6172352 
H     2.7827919    2.7868342    1.5144999 
H     4.0065157    0.3990269    2.8358205 
H     2.9866260    1.5556308    3.4988770 
H    -1.6496010    3.2031392   -2.6096601 
H    -1.7720800    0.8722829   -1.8107195 
H     0.4011125    4.5044782   -2.2733892 
H     2.3302759    3.4966573   -1.1477643 
H     2.1430391   -1.1466888    0.5443073 
O     4.8362414    4.1033452    2.0997055 
O     6.1035545    2.0783096    1.9322814 
H     6.0226424    1.0951079    1.7297876 
