27
Energy =
C    -1.6798567    1.0393596   -1.0617645 
C    -1.1612412   -0.1194203   -0.5654064 
C     0.1349944   -0.1309894   -0.1901313 
C    -0.8962170    2.1547644   -1.1679617 
C     0.4108295    2.1179005   -0.7797957 
C     0.9079392    0.9510790   -0.2922163 
N     0.8580804   -1.2209637    0.3586545 
C     2.1429746    0.6648837    0.1533225 
C     2.1466753   -0.6216679    0.5614941 
H     0.5370970   -2.1946846    0.5644763 
C     3.2938633    1.6595889    0.2324412 
C     4.6932480    1.0557977    0.4861181 
H     3.0649308    2.3949416    1.0335596 
H     3.3369244    2.2230326   -0.7271019 
C     5.1032725    0.0899110   -0.6211446 
N     4.7385735    0.4565761    1.8314520 
H     5.4359228    1.8855576    0.4365090 
H     5.6718852    0.0003254    1.9709209 
H     4.6713839    1.2177242    2.5471682 
H    -2.7207553    1.0766052   -1.3726708 
H    -1.7696619   -1.0123456   -0.4710149 
H    -1.3171872    3.0759573   -1.5632539 
H     1.0294181    3.0064596   -0.8619573 
H     2.9991744   -1.1469260    0.9880860 
O     5.4217245    0.5864431   -1.8801289 
O     5.1532472   -1.2833262   -0.4063208 
H     5.4370210   -1.7342690   -1.2661142 
