27
Energy =
C    -1.0570160    2.1349062    0.9533222 
C    -1.1045724    0.9607490    0.2618721 
C     0.0502806    0.4551315   -0.2198152 
C     0.1366455    2.7745318    1.1445240 
C     1.2901159    2.2441806    0.6458548 
C     1.2184655    1.0728830   -0.0376281 
N     0.2184863   -0.7401668   -0.9685441 
C     2.1917714    0.3578092   -0.6230539 
C     1.6342660   -0.7238314   -1.1961053 
H    -0.4941858   -1.4466750   -1.2622245 
C     3.6624732    0.7116369   -0.6837667 
C     3.9697510    1.7316365   -1.7986364 
H     4.2741085   -0.2051754   -0.8385731 
H     3.9735540    1.1246344    0.3003605 
C     3.7305125    1.1402818   -3.1860544 
N     5.3583488    2.1899219   -1.6258615 
H     3.2779751    2.6021424   -1.7116922 
H     5.6334610    2.7834873   -2.4454128 
H     5.4125823    2.8100484   -0.7842020 
H    -1.9724826    2.5655290    1.3512222 
H    -2.0435734    0.4431940    0.0971616 
H     0.1657994    3.7120231    1.6945562 
H     2.2365248    2.7551424    0.7948769 
H     2.1706871   -1.4672154   -1.7806819 
O     2.4482380    1.1176094   -3.7172497 
O     4.7636247    0.5608739   -3.9110575 
H     4.8610914   -0.3983694   -3.6188490 
