27
Energy =
C    -0.8974934    2.4466302    1.1506643 
C    -1.0934989    1.2616156    0.5056818 
C    -0.0640214    0.7333512   -0.1890301 
C     0.3176149    3.0710788    1.0900789 
C     1.3431373    2.5156409    0.3826581 
C     1.1239919    1.3369557   -0.2556240 
N    -0.0553971   -0.4883405   -0.9131673 
C     1.9568778    0.5901891   -1.0000120 
C     1.2927841   -0.5082415   -1.4019962 
H    -0.8255979   -1.1804680   -1.0580392 
C     3.4097904    0.8818736   -1.3207743 
C     4.3920463    0.2047273   -0.3397062 
H     3.5877623    1.9794242   -1.3145533 
H     3.6214103    0.5476440   -2.3599794 
C     4.2391009   -1.3198339   -0.3007589 
N     4.2646676    0.8401921    0.9844967 
H     5.4257232    0.3850574   -0.7146037 
H     3.3490494    0.5618399    1.4146673 
H     4.9970840    0.4488156    1.6241161 
H    -1.7090746    2.8938702    1.7190922 
H    -2.0485322    0.7493085    0.5483661 
H     0.4693889    4.0126778    1.6121630 
H     2.3109128    3.0063281    0.3466527 
H     1.7250460   -1.3177963   -1.9884483 
O     3.7887044   -1.9509423    0.8524232 
O     4.5459741   -2.1041753   -1.4131443 
H     4.8738028   -1.5493464   -2.1887487 
