27
Energy =
C    -1.2697573    2.7969528   -0.7924927 
C    -1.1828789    1.4670680   -1.0989086 
C     0.0121389    0.8540297   -0.9513600 
C    -0.1678305    3.4769632   -0.3437341 
C     1.0248169    2.8265795   -0.2118838 
C     1.0838624    1.5145065   -0.5290502 
N     0.3373147   -0.5048575   -1.2133590 
C     2.1432280    0.6950582   -0.4828734 
C     1.7397420   -0.5201393   -0.8963858 
H    -0.2798942   -1.2801971   -1.5481182 
C     3.5841695    1.1022877   -0.2037158 
C     3.7807334    1.9375361    1.0973736 
H     3.9451210    1.7034907   -1.0695998 
H     4.2204242    0.1924664   -0.1422035 
C     2.8838369    3.2044052    1.1539209 
N     5.2038948    2.2935513    1.2728735 
H     3.4385795    1.3199619    1.9601813 
H     5.5746183    1.8738595    2.1565606 
H     5.8091715    1.9706801    0.4831256 
H    -2.2192920    3.3157785   -0.8997134 
H    -2.0460999    0.9136756   -1.4524640 
H    -0.2385682    4.5324183   -0.0844362 
H     1.9406931    3.2618924    0.1887107 
H     2.3903070   -1.3811582   -1.0323468 
O     2.8752258    3.8982008    0.2982231 
O     2.6528775    3.8504296    2.3957020 
H     1.7689186    3.5521174    2.7799183 
