27
Energy =
C    -1.2433867    1.2032781    1.3383408 
C    -1.0569385    0.1220550    0.5297447 
C     0.0818350    0.0505280   -0.1905877 
C    -0.2924384    2.1830845    1.4084090 
C     0.8512406    2.0876688    0.6711980 
C     1.0170903    1.0006403   -0.1275207 
N     0.4673986   -0.9850437   -1.0814422 
C     2.0372551    0.6688509   -0.9378414 
C     1.7462775   -0.5086342   -1.5193438 
H    -0.0435103   -1.8556983   -1.3537255 
C     3.3207303    1.4447753   -1.1618139 
C     4.5175736    0.9021637   -0.3408079 
H     3.1691255    2.5195820   -0.9304909 
H     3.5746776    1.4052489   -2.2460993 
C     4.9782400   -0.4631124   -0.8300702 
N     4.2230186    0.9132356    1.1044965 
H     5.3929763    1.5670411   -0.5235797 
H     3.7957913    1.8249269    1.3847219 
H     3.5333832    0.1525077    1.3266135 
H    -2.1519120    1.2858577    1.9297137 
H    -1.8002307   -0.6651740    0.4629990 
H    -0.4491475    3.0428711    2.0554918 
H     1.6005037    2.8695096    0.7310356 
H     2.3984441   -1.0444505   -2.2059897 
O     5.8699365   -0.5454580   -1.8934320 
O     4.4615051   -1.6343841   -0.2868816 
H     4.8926385   -2.4269563   -0.7438896 
