27
Energy =
C    -0.8507059    1.8500538   -1.9381382 
C    -1.0616688    1.1713448   -0.7746483 
C    -0.0112420    0.9717929    0.0489472 
C     0.3990846    2.3083963   -2.2515861 
C     1.4448692    2.0930683   -1.4027796 
C     1.2105406    1.4181244   -0.2477205 
N    -0.0136101    0.2842099    1.2920956 
C     2.0556119    1.0753972    0.7385193 
C     1.3651320    0.3932112    1.6688025 
H    -0.8068238   -0.1780054    1.7928807 
C     3.5412517    1.3538347    0.8073658 
C     4.3765203    0.1924627    0.2325204 
H     3.8174570    1.5305612    1.8714948 
H     3.7864047    2.2930233    0.2621372 
C     5.8561731    0.3812835    0.5820597 
N     4.1555477    0.1192231   -1.2232331 
H     4.0585749   -0.7663423    0.7040847 
H     4.8572874   -0.5282937   -1.6561651 
H     3.2191574   -0.3115340   -1.4089793 
H    -1.6788819    2.0249380   -2.6204291 
H    -2.0455683    0.7974997   -0.5125244 
H     0.5615822    2.8449851   -3.1834579 
H     2.4390287    2.4485224   -1.6586389 
H     1.7878683   -0.0221627    2.5805912 
O     6.7029232    1.0519535   -0.2930908 
O     6.3713127   -0.0642122    1.8010304 
H     5.6628681   -0.4831456    2.3845903 
