27
Energy =
C    -0.2831234    2.1806724    1.8788728 
C    -0.1627983    0.8504972    1.6051544 
C     0.8199979    0.4562400    0.7685548 
C     0.5736342    3.0818715    1.3095458 
C     1.5570551    2.6589004    0.4643251 
C     1.6613694    1.3287198    0.2110035 
N     1.1034758   -0.8681445    0.3404650 
C     2.5223529    0.6675817   -0.5782618 
C     2.2134391   -0.6411369   -0.5387418 
H     0.6369365   -1.7667594    0.6019270 
C     3.6119114    1.2709438   -1.4378732 
C     3.0792171    1.6840929   -2.8212994 
H     4.4409699    0.5383405   -1.5575018 
H     4.0463584    2.1575485   -0.9275913 
C     2.6058551    0.4802606   -3.6318982 
N     4.1228218    2.4592290   -3.5139426 
H     2.1874721    2.3388815   -2.6769705 
H     4.9320801    1.8392095   -3.7546541 
H     3.7322496    2.8165788   -4.4188470 
H    -1.0669408    2.5263526    2.5481802 
H    -0.8391827    0.1235273    2.0419275 
H     0.4673815    4.1417399    1.5281251 
H     2.2298173    3.3779836    0.0065442 
H     2.7032706   -1.4160455   -1.1274631 
O     1.3898210    0.5253901   -4.2961005 
O     3.3855480   -0.6675245   -3.7297114 
H     4.1620920   -0.4892329   -4.3474577 
