27
Energy =
C    -1.4899103    3.1760360    0.5059572 
C    -1.3362743    1.9155576    1.0026206 
C    -0.2117040    1.2378767    0.6908686 
C    -0.5196079    3.7296047   -0.2829897 
C     0.6091694    3.0235989   -0.5831363 
C     0.7377657    1.7683952   -0.0818081 
N     0.1468203   -0.0707535    1.1115748 
C     1.7367942    0.8824533   -0.2230870 
C     1.4263305   -0.2204870    0.4812102 
H    -0.3813238   -0.7455862    1.7116291 
C     3.0177892    1.0695445   -1.0089100 
C     4.1311879    1.7433286   -0.1875847 
H     2.8208011    1.6725783   -1.9202983 
H     3.3766780    0.0770476   -1.3637194 
C     4.5237605    0.9138034    1.0364286 
N     3.7327071    3.1315369    0.1215991 
H     5.0454427    1.7655723   -0.8248273 
H     3.1243588    3.1257089    0.9784689 
H     4.5895295    3.6566656    0.4187341 
H    -2.3853386    3.7450604    0.7442570 
H    -2.0930864    1.4644801    1.6357163 
H    -0.6464451    4.7398879   -0.6660994 
H     1.3939888    3.4658454   -1.1919906 
H     2.0634619   -1.0980049    0.5798427 
O     5.0275930   -0.3708068    0.8627222 
O     4.3753087    1.4106596    2.3268663 
H     4.6855887    0.7071837    2.9839013 
