27
Energy =
C    -1.3225920    2.8876333    0.3350865 
C    -1.3632074    1.7824902   -0.4697499 
C    -0.1927385    1.2130760   -0.8328672 
C    -0.1197565    3.3913946    0.7573583 
C     1.0419933    2.7931283    0.3642525 
C     0.9729811    1.7067303   -0.4338146 
N     0.0078260    0.0736152   -1.6576272 
C     1.9803507    0.9772649   -0.9322047 
C     1.4435980   -0.0033763   -1.6805313 
H    -0.6997349   -0.5400593   -2.1235598 
C     3.4658023    1.3000526   -0.8276145 
C     3.9679984    1.5918734    0.6103301 
H     3.6821833    2.1897506   -1.4619858 
H     4.0583173    0.4569221   -1.2447462 
C     3.1517616    2.7163563    1.3275897 
N     5.3992691    1.9174239    0.5341179 
H     3.8276847    0.6684251    1.2182439 
H     5.7106854    2.3380834    1.4418145 
H     5.9458314    1.0345723    0.4071678 
H    -2.2490318    3.3637163    0.6477647 
H    -2.3064285    1.3680539   -0.8101466 
H    -0.0833631    4.2590802    1.4140952 
H     2.0394878    3.0826577    0.6832723 
H     2.0109275   -0.7228149   -2.2669096 
O     3.0158360    3.6715126    0.8039412 
O     3.2310153    2.8793767    2.7377656 
H     3.7565426    2.1349552    3.1721872 
