27
Energy =
C    -1.2420822    1.6010577    0.6316441 
C    -1.0388090    0.5936001   -0.2637854 
C     0.2153704    0.3829468   -0.7157028 
C    -0.1928213    2.3693498    1.0538757 
C     1.0655034    2.1369486    0.5824097 
C     1.2449624    1.1288272   -0.3099106 
N     0.6396920   -0.6144184   -1.6343629 
C     2.3657332    0.6948872   -0.9107214 
C     2.0462092   -0.3460285   -1.6998680 
H     0.0736064   -1.3431160   -2.1266524 
C     3.7729109    1.2186962   -0.7153615 
C     4.5384750    0.4203938    0.3658507 
H     3.7568036    2.2989440   -0.4467874 
H     4.3150864    1.1417357   -1.6835622 
C     3.8856772    0.5775198    1.7441994 
N     5.9545921    0.8409323    0.4117468 
H     4.4954942   -0.6584412    0.0903562 
H     6.5796500    0.0152979    0.2556441 
H     6.1969205    1.5532509   -0.3165857 
H    -2.2409073    1.7905322    1.0165173 
H    -1.8592470   -0.0287671   -0.6041457 
H    -0.3594256    3.1655807    1.7755660 
H     1.8956062    2.7447075    0.9297695 
H     2.7548416   -0.9170955   -2.2956624 
O     3.9785461    1.7918952    2.4171560 
O     3.1230000   -0.4441560    2.3168178 
H     3.0649232   -1.2579330    1.7240292 
