27
Energy =
C    -1.5867327    2.6341705    0.2864083 
C    -1.3016304    1.3047507    0.3833260 
C    -0.0356200    0.9027269    0.1445789 
C    -0.6053834    3.5273111   -0.0429571 
C     0.6672840    3.0950630   -0.2802059 
C     0.9287481    1.7669640   -0.1803101 
N     0.4649362   -0.4256011    0.1946120 
C     2.0775875    1.0953425   -0.3657340 
C     1.8420435   -0.2105958   -0.1418472 
H    -0.0360934   -1.3189476    0.4073630 
C     3.4314631    1.6692814   -0.7383627 
C     4.1968307    2.2275225    0.4773245 
H     3.3067847    2.4656360   -1.5020098 
H     4.0456419    0.8711084   -1.2126123 
C     4.3353058    1.1821622    1.5865207 
N     3.5498796    3.4866199    0.9017276 
H     5.2474558    2.4331146    0.1660326 
H     3.8503643    3.7288566    1.8781254 
H     3.9014067    4.2672387    0.2988691 
H    -2.5976441    2.9854976    0.4784813 
H    -2.0675251    0.5836564    0.6487023 
H    -0.8397538    4.5875624   -0.1075016 
H     1.4534171    3.8018047   -0.5246094 
H     2.5953568   -0.9952951   -0.1834283 
O     4.0493231    1.4806541    2.9156321 
O     4.8259131   -0.0819523    1.2753468 
H     4.8735959   -0.6275912    2.1265584 
