27
Energy =
C    -1.3365993    2.5865479   -0.8047465 
C    -1.1503932    1.2736562   -1.1395993 
C     0.0837226    0.7441500   -0.9890672 
C    -0.2923297    3.3332993   -0.3252251 
C     0.9418523    2.7664762   -0.1913015 
C     1.1000106    1.4692172   -0.5372006 
N     0.5086694   -0.5817107   -1.2764317 
C     2.2159118    0.7252246   -0.4939372 
C     1.9045086   -0.5054885   -0.9398181 
H    -0.0472634   -1.3907279   -1.6379016 
C     3.6235959    1.2246345   -0.1865971 
C     3.7505010    2.0407458    1.1260255 
H     3.9587846    1.8618933   -1.0351373 
H     4.3261073    0.3645389   -0.1316629 
C     2.7485902    3.2234098    1.2076671 
N     5.1450925    2.4853587    1.2664223 
H     3.4922153    1.3735661    1.9809055 
H     5.3063662    3.2778608    0.5977470 
H     5.2467405    2.9205146    2.2148991 
H    -2.3197255    3.0381503   -0.9134852 
H    -1.9672551    0.6682411   -1.5172662 
H    -0.4417641    4.3744288   -0.0428505 
H     1.8219276    3.2478182    0.2294632 
H     2.6154955   -1.3161699   -1.0843198 
O     2.7246081    3.9269235    0.3611869 
O     2.5783990    3.8935500    2.4434550 
H     1.7201815    3.5931390    2.8822961 
