15
Energy =
C    -6.1488848    2.0647924   -0.8785108 
C    -6.2413151    2.9218538    0.3746552 
H    -5.1747117    1.5378065   -0.8962017 
H    -6.2878233    2.6717168   -1.7944667 
H    -6.9464811    1.2930991   -0.8501819 
C    -5.2047063    4.0904699    0.4479739 
O    -6.1204564    2.0310230    1.4777072 
H    -7.2669598    3.3700100    0.4105567 
C    -4.2200691    4.2262451   -0.7303463 
H    -4.6067685    4.0368326    1.3825461 
H    -5.7714192    5.0452214    0.5309401 
H    -3.5937163    3.3134499   -0.8310738 
H    -3.5352308    5.0843804   -0.5526566 
H    -4.7567622    4.4213278   -1.6835754 
H    -5.4678285    2.2833150    2.2099572 
