15
Energy =
C    -7.0028102    3.1683048    0.0469181 
C    -5.7336003    2.3541569   -0.1468156 
H    -7.0671807    3.9438285   -0.7458022 
H    -7.0128158    3.6524401    1.0456458 
H    -7.8919693    2.5102520   -0.0371482 
C    -4.4724267    3.2430199    0.0218511 
O    -5.7820961    1.7883230   -1.4463511 
H    -5.6826821    1.5328050    0.6152555 
C    -3.5805096    3.3139256   -1.2280293 
H    -3.8650906    2.8450558    0.8645774 
H    -4.7506516    4.2821520    0.3091376 
H    -4.1699360    3.7043834   -2.0873194 
H    -3.2274166    2.2957027   -1.5022769 
H    -2.7051915    3.9730760   -1.0499064 
H    -6.5086457    1.0852721   -1.5363818 
