15
Energy =
C    -7.0783529    3.3174234   -0.1612923 
C    -5.8020531    2.4672876   -0.0993123 
H    -7.7195994    3.1079202    0.7195334 
H    -7.6629076    3.0743019   -1.0743018 
H    -6.8866524    4.4078799   -0.1958225 
C    -4.5022067    3.3273644   -0.0244930 
O    -5.7959034    1.6087883   -1.2279497 
H    -5.8213616    1.8334786    0.8268490 
C    -3.4452372    3.0928201   -1.1329846 
H    -4.0212539    3.1320266    0.9601739 
H    -4.7349404    4.4134474    0.0003801 
H    -2.4833712    2.7595085   -0.6892118 
H    -3.2626278    4.0332081   -1.6950991 
H    -3.7490434    2.3280467   -1.8797897 
H    -6.4856752    0.8672382   -1.1523554 
