15
Energy =
C    -6.9784677    3.1357793   -0.2265543 
C    -5.6809472    2.3449109   -0.2033163 
H    -7.1877522    3.5973191    0.7595677 
H    -7.8145380    2.4540422   -0.4857051 
H    -6.9234301    3.9062130   -1.0210672 
C    -4.4076167    3.1564921    0.1488384 
O    -5.5267693    1.7889252   -1.4965422 
H    -5.8231538    1.5231542    0.5468096 
C    -4.5809839    4.6737447    0.3569323 
H    -3.6536412    3.0015454   -0.6575366 
H    -3.9583557    2.7242862    1.0704070 
H    -5.2684308    4.8883878    1.2029232 
H    -4.9629964    5.1557760   -0.5693554 
H    -3.5980119    5.1357603    0.5942016 
H    -4.9601960    0.9467495   -1.4923866 
