15
Energy =
C    -6.7731548    3.9864051   -0.6808467 
C    -6.0232073    2.7504000   -0.2061611 
H    -6.2597366    4.4348095   -1.5565404 
H    -6.8390722    4.7384864    0.1327730 
H    -7.7998391    3.6945231   -0.9871387 
C    -4.5565743    3.0730521    0.1847845 
O    -6.1107930    1.7580684   -1.2148006 
H    -6.5561004    2.3533987    0.6973312 
C    -3.4851365    2.3115470   -0.6159066 
H    -4.4240877    2.8264203    1.2623675 
H    -4.3545293    4.1649944    0.0985625 
H    -3.6833081    1.2157102   -0.5823040 
H    -2.4759647    2.5008171   -0.1909331 
H    -3.4844831    2.6403468   -1.6768325 
H    -5.7790696    2.0823503   -2.1175830 
