15
Energy =
C    -6.6515832    2.1714826   -0.1266086 
C    -5.3199479    2.5942990   -0.7281108 
H    -7.0435964    1.2879484   -0.6708392 
H    -7.3907469    2.9923386   -0.2398353 
H    -6.5304083    1.8934305    0.9403752 
C    -4.6030359    3.7891003   -0.0417659 
O    -5.5534231    2.9495383   -2.0797795 
H    -4.6155142    1.7218827   -0.6940972 
C    -5.2977309    4.5250644    1.1376749 
H    -4.3731187    4.5353992   -0.8396684 
H    -3.6044027    3.4402756    0.3032518 
H    -5.4566447    5.5940088    0.8748484 
H    -4.6519812    4.4958642    2.0422690 
H    -6.2855976    4.1255548    1.4307475 
H    -5.7846559    2.1492009   -2.6604970 
