15
Energy =
C    -5.0292258    2.9946278   -1.6280083 
C    -5.4185656    2.3214544   -0.3238167 
H    -4.1271124    3.6204251   -1.4644806 
H    -5.8694177    3.5952989   -2.0342870 
H    -4.7528608    2.2156435   -2.3675771 
C    -5.8567018    3.2577647    0.8363565 
O    -4.2893245    1.5719641    0.0906640 
H    -6.2614281    1.6221099   -0.5719479 
C    -5.7766628    4.7964842    0.6434312 
H    -5.2578301    2.9899095    1.7387020 
H    -6.9037495    2.9935335    1.1088579 
H    -6.7766324    5.2561681    0.8002314 
H    -5.4180601    5.1336261   -0.3453803 
H    -5.0863902    5.2370686    1.3961941 
H    -4.5402611    0.7770192    0.6709658 
