15
Energy =
C    -7.0391613    2.9790682   -0.2585522 
C    -5.6823564    2.3083068   -0.1180556 
H    -7.3076855    3.5230620    0.6700480 
H    -7.8179159    2.2118257   -0.4463096 
H    -7.0257532    3.6655341   -1.1311799 
C    -4.4838237    3.2418002    0.2046294 
O    -5.4027235    1.6553197   -1.3433911 
H    -5.7379342    1.5444098    0.7022713 
C    -4.7082210    4.7776088    0.2879247 
H    -3.6954872    3.0388465   -0.5595725 
H    -4.0303106    2.9020634    1.1622150 
H    -4.0845737    5.2924264   -0.4755617 
H    -4.3969169    5.1574967    1.2853253 
H    -5.7473999    5.1151945    0.1215505 
H    -6.0026085    0.8519710   -1.5045788 
