15
Energy =
C    -6.9722512    2.4851933    0.2997242 
C    -5.4780465    2.3000888    0.1075378 
H    -7.4646775    1.4915324    0.2741581 
H    -7.3880153    3.0854000   -0.5368312 
H    -7.1859675    2.9825585    1.2684429 
C    -4.7524551    3.6623063    0.0333588 
O    -5.3155877    1.6176573   -1.1209955 
H    -5.1100044    1.6543734    0.9464683 
C    -3.6658581    3.8494488    1.1197399 
H    -5.4807307    4.5045825    0.0878314 
H    -4.2897573    3.7694442   -0.9753627 
H    -3.5664504    2.9836359    1.8088631 
H    -3.8902595    4.7445211    1.7415663 
H    -2.6721208    4.0114097    0.6457778 
H    -4.3586006    1.3073894   -1.2603529 
