15
Energy =
C    -6.6711442    2.2964229   -0.4576185 
C    -5.2036441    2.3199071   -0.0735460 
H    -6.8204207    2.8942013   -1.3803477 
H    -7.3066857    2.6699786    0.3711966 
H    -6.9645367    1.2538502   -0.6964898 
C    -4.6137287    3.7003555    0.3249532 
O    -4.4906782    1.8186838   -1.1897470 
H    -5.0944140    1.6095255    0.7880020 
C    -5.4968843    4.9711239    0.1981782 
H    -3.6863566    3.8617912   -0.2726663 
H    -4.2574561    3.6263531    1.3767537 
H    -5.0204467    5.6940238   -0.5002009 
H    -5.5900074    5.4744893    1.1851917 
H    -6.5223248    4.8032123   -0.1780949 
H    -3.6048892    1.3971706   -0.9294432 
