15
Energy =
C    -6.9501821    2.8775182    0.1723372 
C    -5.5443654    2.2972384    0.0665297 
H    -7.0462341    3.5111723    1.0770078 
H    -7.6801153    2.0444191    0.2469851 
H    -7.1995581    3.4679929   -0.7312872 
C    -4.3890592    3.3184617   -0.0885875 
O    -5.5198406    1.3980383   -1.0265908 
H    -5.3614957    1.6987147    0.9976791 
C    -4.7823484    4.8090223   -0.1240465 
H    -3.8145384    3.0711932   -1.0116261 
H    -3.6703063    3.1631377    0.7472281 
H    -3.8711629    5.4387231   -0.2249335 
H    -5.2970768    5.1089454    0.8143549 
H    -5.4395653    5.0263259   -0.9936729 
H    -5.7531309    1.8464564   -1.9081306 
