15
Energy =
C    -6.9617848    2.9858686   -0.0002608 
C    -5.5994166    2.3137053    0.0739324 
H    -7.0547432    3.5411807   -0.9568656 
H    -7.1141220    3.6774245    0.8519003 
H    -7.7591308    2.2155937    0.0294664 
C    -4.4592201    3.3272192   -0.0176478 
O    -5.4819174    1.4602380   -1.0469653 
H    -5.4839178    1.7275081    1.0230154 
C    -4.2929409    4.1776119    1.2574270 
H    -4.6139819    3.9679739   -0.9151638 
H    -3.5215856    2.7564540   -0.2084426 
H    -3.3888556    4.8191007    1.1686159 
H    -4.1700062    3.5309013    2.1540075 
H    -5.1675008    4.8458127    1.4106025 
H    -6.0602714    0.6298322   -0.9633912 
