15
Energy =
C    -6.9141218    3.2901045    0.2943648 
C    -5.6768907    2.4303536   -0.0026391 
H    -7.3848247    2.9604461    1.2439673 
H    -7.6768273    3.1697869   -0.5029118 
H    -6.6894816    4.3715628    0.3827484 
C    -4.3639163    3.2516416   -0.1587124 
O    -5.9436218    1.6207170   -1.1365837 
H    -5.5336424    1.7295721    0.8616971 
C    -3.6538223    3.1040481   -1.5160354 
H    -3.6553043    2.9208567    0.6339724 
H    -4.5304897    4.3340523    0.0306768 
H    -4.2610909    3.5614449   -2.3258151 
H    -3.4885019    2.0282022   -1.7526630 
H    -2.6665431    3.6136712   -1.4926629 
H    -6.1463023    2.1647296   -1.9689876 
