15
Energy =
C    -6.8471676    2.8690450   -0.3193759 
C    -5.5274608    2.1974980    0.0121292 
H    -7.6436980    2.0978965   -0.3354032 
H    -6.8051461    3.3118442   -1.3344930 
H    -7.0986606    3.6486593    0.4289046 
C    -4.3746162    3.2131825    0.1094859 
O    -5.2708085    1.2506109   -1.0079280 
H    -5.6483160    1.6685342    0.9926680 
C    -4.0437879    3.9228032   -1.2163711 
H    -3.4675936    2.6713542    0.4579620 
H    -4.6162672    3.9705943    0.8887085 
H    -3.8842364    3.1787463   -2.0280593 
H    -3.1181196    4.5273323   -1.1070198 
H    -4.8662950    4.6032158   -1.5223691 
H    -4.3937713    0.7598083   -0.8686157 
