15
Energy =
C    -7.0477075    2.9374489   -0.1185210 
C    -5.6410179    2.4012225    0.1866361 
H    -7.7249517    2.7231220    0.7343372 
H    -7.4794314    2.4307693   -1.0069354 
H    -7.0765690    4.0297009   -0.3021644 
C    -4.5292044    3.4762419    0.0917159 
O    -5.3524810    1.3500473   -0.7200145 
H    -5.6642269    1.9507110    1.2129040 
C    -3.6478994    3.5852556    1.3619828 
H    -4.9482384    4.4794920   -0.1401784 
H    -3.8766164    3.2362502   -0.7794701 
H    -2.5881141    3.3499277    1.1165842 
H    -3.9488368    2.8959877    2.1798925 
H    -3.6780337    4.6197169    1.7704709 
H    -5.3599164    1.6437511   -1.6925522 
