15
Energy =
C    -6.9467200    2.9954982   -0.0385007 
C    -5.5802235    2.3294540    0.0347348 
H    -7.7241691    2.2113759   -0.1533645 
H    -7.0053523    3.6761674   -0.9121904 
H    -7.1557742    3.5662990    0.8885329 
C    -4.4281123    3.3368413    0.0129563 
O    -5.4480688    1.4631982   -1.0764869 
H    -5.5172062    1.7117776    0.9696376 
C    -4.3034331    4.1311197    1.3262104 
H    -4.5497461    4.0286802   -0.8505189 
H    -3.4871794    2.7658517   -0.1662015 
H    -4.1905043    3.4477654    2.1969568 
H    -5.1928700    4.7780864    1.4884528 
H    -3.4078688    4.7896858    1.2880477 
H    -5.5252025    1.9425243   -1.9691068 
