15
Energy =
C    -7.0366729    2.4799347   -0.0756148 
C    -5.5678069    2.1731169   -0.4503931 
H    -7.4676874    1.6199087    0.4786536 
H    -7.6843882    2.6527729   -0.9569540 
H    -7.1496955    3.3742415    0.5687156 
C    -4.5677478    3.1669144    0.2068007 
O    -5.3885440    2.1425913   -1.8652454 
H    -5.3337217    1.1441484   -0.0730369 
C    -3.6711881    3.9115696   -0.7954101 
H    -3.9119059    2.5954601    0.9005622 
H    -5.0790837    3.9248739    0.8372145 
H    -4.3001371    4.4860251   -1.5101130 
H    -3.0738028    3.1817677   -1.3857601 
H    -2.9842906    4.6058036   -0.2673438 
H    -6.2126005    2.2796350   -2.4381436 
