15
Energy =
C    -7.0282802    3.1999353   -0.5018526 
C    -5.8248718    2.3723268   -0.0199739 
H    -7.8941223    3.0352613    0.1716912 
H    -7.3304802    2.8817674   -1.5221201 
H    -6.8572182    4.2863000   -0.5590780 
C    -4.5357812    3.1346317    0.3936739 
O    -5.4719845    1.4707823   -1.0558196 
H    -6.1379459    1.7776533    0.8792664 
C    -4.5016760    4.6634820    0.2085384 
H    -3.6866326    2.6933197   -0.1812234 
H    -4.3149359    2.9098573    1.4606786 
H    -4.6609783    4.9283990   -0.8607469 
H    -3.5069297    5.0590237    0.5086402 
H    -5.2675542    5.1574120    0.8451234 
H    -6.1273300    0.6996133   -1.1408965 
