15
Energy =
C    -6.8037157    2.9171745    0.0347055 
C    -5.4326622    2.2776578   -0.1036156 
H    -7.5770175    2.1652158   -0.2226045 
H    -6.9034950    3.7572560   -0.6836175 
H    -6.9772955    3.2849779    1.0658708 
C    -4.3144704    3.3040068    0.0982840 
O    -5.3546823    1.7822023   -1.4260656 
H    -5.3479302    1.4366694    0.6347143 
C    -4.1396769    3.7401484    1.5715002 
H    -4.5079674    4.1817092   -0.5615326 
H    -3.3622363    2.8602129   -0.2700500 
H    -4.2219963    4.8462397    1.6570502 
H    -3.1358219    3.4442883    1.9490833 
H    -4.8986286    3.2923376    2.2498076 
H    -4.5841859    1.1337300   -1.5543325 
