15
Energy =
C    -6.8531321    3.0663657    0.1402671 
C    -5.5580196    2.2823115    0.0150128 
H    -7.7141847    2.3672047    0.1517171 
H    -6.9676346    3.7414590   -0.7343041 
H    -6.8669729    3.6619294    1.0768207 
C    -4.3592517    3.2317960    0.0290760 
O    -5.5751511    1.6140391   -1.2323680 
H    -5.4504593    1.5500010    0.8573408 
C    -3.0282762    2.4639501    0.0520449 
H    -4.4120247    3.9001204    0.9170781 
H    -4.4094061    3.8657684   -0.8861058 
H    -2.1751859    3.1731784   -0.0038525 
H    -2.9756269    1.7747660   -0.8229954 
H    -2.9343589    1.8638281    0.9824524 
H    -6.2482347    0.8546211   -1.2525846 
