15
Energy =
C    -6.9017129    3.1604909   -0.4705724 
C    -5.6548715    2.4276036    0.0352834 
H    -7.7491146    3.0025039    0.2282014 
H    -7.2011849    2.7515183   -1.4596844 
H    -6.7605039    4.2515760   -0.5959853 
C    -4.4479620    3.3619367    0.2678507 
O    -5.3019800    1.4735476   -0.9505785 
H    -5.9434585    1.8936150    0.9793788 
C    -3.9356423    3.2971321    1.7183746 
H    -4.6790346    4.4178258    0.0098970 
H    -3.6301832    3.0676752   -0.4310769 
H    -3.0555984    3.9655103    1.8457252 
H    -3.6235786    2.2609015    1.9780902 
H    -4.7269804    3.6247764    2.4291085 
H    -4.7706028    0.7003991   -0.5619235 
