15
Energy =
C    -6.9102123    2.5773887    0.1779209 
C    -5.4513386    2.2503161   -0.0763586 
H    -7.2800715    3.2459366   -0.6273268 
H    -7.0441794    3.0601090    1.1682072 
H    -7.5052998    1.6418106    0.1390070 
C    -4.5800833    3.5341475   -0.0661548 
O    -5.4057442    1.5882589   -1.3277076 
H    -5.1199454    1.5496691    0.7346239 
C    -3.8251794    3.8129249   -1.3780014 
H    -3.8373253    3.4512354    0.7583260 
H    -5.1985727    4.4291831    0.1754421 
H    -4.5376851    3.8201560   -2.2348425 
H    -3.0609572    3.0287166   -1.5640167 
H    -3.3142937    4.7985619   -1.3316179 
H    -4.5396149    1.0760501   -1.4554130 
