15
Energy =
C    -6.6996371    2.8076970    0.8522374 
C    -5.4326910    2.3102582    0.1775961 
H    -6.4585387    3.3818206    1.7704004 
H    -7.3416640    1.9445786    1.1203972 
H    -7.2647796    3.4476315    0.1441722 
C    -4.3982602    3.4239377   -0.0352831 
O    -5.7746138    1.7646319   -1.0820948 
H    -4.9471994    1.5250743    0.8110729 
C    -4.9226109    4.6304643   -0.8380432 
H    -3.5461567    2.9676196   -0.5888248 
H    -4.0148186    3.7688045    0.9499560 
H    -4.0833455    5.3058997   -1.1095578 
H    -5.6587862    5.2133548   -0.2453844 
H    -5.4102032    4.2804953   -1.7765623 
H    -6.2109388    0.8520069   -1.0010696 
