15
Energy =
C    -6.8179929    2.5764452    0.4769163 
C    -5.4103675    2.2621204   -0.0397008 
H    -7.0059601    3.6585769    0.6237765 
H    -6.9949912    2.0588997    1.4417238 
H    -7.5753482    2.2162632   -0.2510644 
C    -4.5016115    3.5184591   -0.1515614 
O    -5.5411355    1.6189602   -1.2987504 
H    -4.9045779    1.5611602    0.6735825 
C    -3.9317218    3.7587580   -1.5588170 
H    -3.6502213    3.4054238    0.5556814 
H    -5.0314592    4.4424798    0.1640497 
H    -3.3757773    2.8601662   -1.9059511 
H    -3.2541760    4.6382004   -1.5636572 
H    -4.7653796    3.9321446   -2.2745805 
H    -5.6663355    0.6157983   -1.2097352 
