15
Energy =
C    -6.9033765    3.1420384   -0.4834361 
C    -5.7210393    2.2597471   -0.0748015 
H    -7.6912681    3.1074319    0.2968747 
H    -7.3447203    2.7850293   -1.4377505 
H    -6.6154618    4.2023465   -0.6267741 
C    -4.4545591    3.0715408    0.2400614 
O    -5.4335286    1.3512362   -1.1234958 
H    -5.9766390    1.6852924    0.8543125 
C    -3.8106268    3.7127224   -1.0027058 
H    -3.7142830    2.3772328    0.6967240 
H    -4.6881906    3.8540806    0.9953986 
H    -3.6017794    2.9277234   -1.7651899 
H    -2.8559625    4.2079113   -0.7275163 
H    -4.4832768    4.4637526   -1.4644148 
H    -6.1304873    0.6168838   -1.1964213 
