15
Energy =
C    -7.1158576    2.9816341   -0.4231667 
C    -5.7559831    2.3431743   -0.7436953 
H    -7.0955318    3.6408220    0.4674628 
H    -7.8729700    2.1900287   -0.2455087 
H    -7.4784850    3.5873814   -1.2797301 
C    -4.6188800    2.7644208    0.2320776 
O    -5.4304232    2.6133060   -2.0976725 
H    -5.8736824    1.2306113   -0.6617618 
C    -3.4117520    3.4567721   -0.4261894 
H    -4.2489827    1.8478409    0.7450664 
H    -4.9971945    3.4218242    1.0446717 
H    -3.0201938    2.8383670   -1.2661239 
H    -2.5959279    3.5997540    0.3147632 
H    -3.7015584    4.4540630   -0.8202725 
H    -5.3643688    3.6069410   -2.2937738 
