15
Energy =
C    -6.7845217    2.7101615    0.0908332 
C    -5.3375323    2.3512977   -0.2558587 
H    -6.8732778    3.7100535    0.5644713 
H    -7.2128648    1.9562099    0.7812457 
H    -7.4036088    2.7219881   -0.8316297 
C    -4.3609880    3.4593757    0.1454725 
O    -5.2694596    2.1904924   -1.6608878 
H    -5.0676094    1.3880934    0.2542521 
C    -4.2222693    3.6235251    1.6767843 
H    -4.6896469    4.4105706   -0.3352109 
H    -3.3660620    3.2263847   -0.2961689 
H    -3.1708377    3.4476645    1.9951313 
H    -4.8714926    2.9206619    2.2448091 
H    -4.5006109    4.6572165    1.9792706 
H    -4.4343198    1.6948360   -1.9567794 
