15
Energy =
C    -6.9383591    2.8596839    0.2288432 
C    -5.5029637    2.3779667    0.0707406 
H    -7.0258175    3.5445692    1.0978586 
H    -7.6030605    1.9850734    0.3913602 
H    -7.2688765    3.3865815   -0.6899864 
C    -4.5212110    3.5494784   -0.1982495 
O    -5.4671440    1.3939888   -0.9498078 
H    -5.2061207    1.8740123    1.0273503 
C    -3.7428473    3.4571179   -1.5216969 
H    -3.7831087    3.5806709    0.6343942 
H    -5.0523905    4.5276348   -0.1690685 
H    -2.9865058    4.2688736   -1.5825887 
H    -4.4317898    3.5564923   -2.3871457 
H    -3.2166000    2.4784402   -1.5932294 
H    -5.8650572    1.7159213   -1.8261009 
