15
Energy =
C    -6.9724662    3.4360887   -0.1560917 
C    -5.7883599    2.5010938    0.1139094 
H    -7.7030888    3.3803883    0.6773066 
H    -7.4967540    3.1192769   -1.0834593 
H    -6.6860255    4.4975310   -0.2874373 
C    -4.4256811    3.2334487    0.1448358 
O    -5.7624026    1.5490975   -0.9347969 
H    -6.0037919    1.9732150    1.0780040 
C    -3.6465134    3.0542711    1.4721437 
H    -4.5348197    4.3178422   -0.0723872 
H    -3.8095911    2.8542046   -0.7042571 
H    -2.6677978    2.5605351    1.2814855 
H    -4.1845812    2.4412918    2.2268978 
H    -3.4402617    4.0439950    1.9367612 
H    -5.2863742    0.6942807   -0.6624616 
