15
Energy =
C    -6.8748939    3.1251811    0.7019597 
C    -5.3886800    2.7979335    0.7352134 
H    -7.0514700    4.1693212    1.0337747 
H    -7.4140489    2.4314604    1.3801874 
H    -7.2840786    2.9864881   -0.3182854 
C    -4.5182135    3.7740041   -0.0726355 
O    -5.1854350    1.4704690    0.2882729 
H    -5.0545573    2.8466270    1.8046213 
C    -4.9331549    3.9606746   -1.5460644 
H    -3.4723059    3.3904263   -0.0336097 
H    -4.5241749    4.7639420    0.4359432 
H    -4.2125766    4.6356941   -2.0572828 
H    -5.9399923    4.4236216   -1.6250329 
H    -4.9297496    2.9921651   -2.0895315 
H    -5.5562538    1.3013599   -0.6404996 
