15
Energy =
C    -6.9094698    2.9529396    0.0448924 
C    -5.5448439    2.2791383    0.0576502 
H    -7.6937993    2.1824508    0.1964422 
H    -7.0996647    3.4413033   -0.9313451 
H    -6.9785010    3.7074119    0.8555683 
C    -4.3663161    3.2616917   -0.0308434 
O    -5.4771527    1.3285152   -0.9884658 
H    -5.4504472    1.7204227    1.0252424 
C    -4.3900966    4.2087690   -1.2465475 
H    -3.4322841    2.6545682   -0.0614503 
H    -4.3337596    3.8672331    0.9022820 
H    -3.4762990    4.8418597   -1.2467889 
H    -5.2687073    4.8873274   -1.2107774 
H    -4.4034929    3.6375948   -2.1988287 
H    -5.6741138    1.7260421   -1.9004378 
