15
Energy =
C    -6.8224877    3.1137682    0.6370285 
C    -5.5746941    2.3412886    0.2229516 
H    -7.5740067    2.3961832    1.0274425 
H    -7.2718511    3.6346921   -0.2322000 
H    -6.5843449    3.8455006    1.4352796 
C    -4.4276852    3.1717936   -0.4067800 
O    -5.9664640    1.3262700   -0.6826763 
H    -5.1766207    1.8356530    1.1417780 
C    -4.6725317    4.6863274   -0.5563936 
H    -4.1825074    2.7429253   -1.4061912 
H    -3.5096187    3.0218585    0.2044964 
H    -3.7778316    5.1724520   -1.0034206 
H    -4.8575147    5.1609758    0.4314905 
H    -5.5351219    4.8832893   -1.2290786 
H    -6.4084805    1.6992249   -1.5186528 
