15
Energy =
C    -6.7828889    2.6846107    0.5246829 
C    -5.3983342    2.1486999    0.2004864 
H    -6.7516283    3.3787949    1.3874869 
H    -7.4573212    1.8410651    0.7758613 
H    -7.1959638    3.2042520   -0.3643533 
C    -4.4331503    3.2630473   -0.2020025 
O    -5.5235360    1.2883981   -0.9140050 
H    -4.9637486    1.5945356    1.0722942 
C    -3.9831766    4.1392371    0.9837199 
H    -4.8977508    3.8811362   -1.0029531 
H    -3.5448177    2.7776537   -0.6681209 
H    -3.5440785    3.5170288    1.7945589 
H    -4.8336571    4.7232702    1.3962612 
H    -3.2087284    4.8627528    0.6465773 
H    -5.8931130    0.3777903   -0.6588789 
