15
Energy =
C    -6.8077578    3.3124971   -0.0006365 
C    -5.6191358    2.3772939   -0.1528777 
H    -6.6959675    4.1778993   -0.6882506 
H    -6.8943448    3.6767398    1.0442799 
H    -7.7427958    2.7781846   -0.2667922 
C    -4.3282225    3.0925441    0.2513307 
O    -5.5153265    2.0241482   -1.5191620 
H    -5.7421288    1.4640572    0.4871233 
C    -3.0973724    2.1592962    0.2144435 
H    -4.4422294    3.5163357    1.2740919 
H    -4.1776650    3.9455727   -0.4501640 
H    -2.5954604    2.1294081    1.2052039 
H    -2.3665059    2.5204696   -0.5417936 
H    -3.3687450    1.1196735   -0.0769532 
H    -6.2999275    1.4628363   -1.8342215 
