15
Energy =
C    -7.0511669    3.2191592   -0.0778230 
C    -5.7515892    2.3959409   -0.0984199 
H    -7.7041681    2.8748805    0.7512516 
H    -7.6270145    3.0827112   -1.0159270 
H    -6.8818212    4.3064517    0.0525645 
C    -4.4584803    3.2603758    0.0096583 
O    -5.7549242    1.5458101   -1.2337157 
H    -5.7770298    1.7210917    0.7975747 
C    -3.4675083    3.2271288   -1.1818000 
H    -3.9073854    2.9207772    0.9161443 
H    -4.7059633    4.3210470    0.2314367 
H    -2.5020058    2.7755507   -0.8655264 
H    -3.2590244    4.2577250   -1.5418639 
H    -3.8159229    2.6374381   -2.0509148 
H    -5.9432900    2.0370780   -2.1018310 
