15
Energy =
C    -7.0025103    2.7680386   -0.4559057 
C    -5.5374949    2.3506336   -0.3279483 
H    -7.6654742    1.9532149   -0.0996062 
H    -7.2403917    2.9788133   -1.5190303 
H    -7.2391981    3.6800567    0.1250218 
C    -4.7798269    3.0995474    0.7794012 
O    -4.8800343    2.5714970   -1.5636404 
H    -5.4856818    1.2615079   -0.0703213 
C    -4.6157921    4.6116779    0.5234814 
H    -3.7663232    2.6430785    0.8413118 
H    -5.2856034    2.9340440    1.7558227 
H    -5.5843644    5.1464530    0.5988923 
H    -4.1984013    4.7846390   -0.4946153 
H    -3.9188780    5.0534972    1.2670815 
H    -4.9687244    1.7844157   -2.1980111 
