15
Energy =
C    -6.8736021    2.9801009    0.0679171 
C    -5.5341853    2.2665381    0.0017318 
H    -6.9747455    3.7012587   -0.7693750 
H    -6.9821063    3.5183753    1.0324176 
H    -7.6871060    2.2293860   -0.0195718 
C    -4.3711656    3.2632454    0.0199861 
O    -5.4973811    1.4980325   -1.1873235 
H    -5.4430943    1.5734814    0.8797642 
C    -3.0145138    2.5452548    0.0879128 
H    -4.4732525    3.9378454    0.8999798 
H    -4.4158806    3.8972037   -0.8940544 
H    -2.9137192    1.8309975   -0.7620769 
H    -2.9180039    1.9720096    1.0355576 
H    -2.1845854    3.2819886    0.0324362 
H    -5.5726030    2.0625238   -2.0279970 
