15
Energy =
C    -6.8716700    2.9687522   -0.4596371 
C    -5.4435379    2.4314609   -0.5789516 
H    -7.0405297    3.5302771    0.4832122 
H    -7.5960414    2.1294355   -0.4992668 
H    -7.1073427    3.6456369   -1.3082172 
C    -4.5765320    2.8347155    0.6219241 
O    -4.8727850    2.9237522   -1.7788163 
H    -5.4683370    1.3112035   -0.6390299 
C    -3.1646940    2.2315703    0.5395019 
H    -5.0675582    2.4906192    1.5602757 
H    -4.5083663    3.9453324    0.6677837 
H    -3.2040252    1.1211937    0.4891432 
H    -2.5656233    2.5266472    1.4277051 
H    -2.6441023    2.5981493   -0.3734516 
H    -4.6974302    3.9236017   -1.7520784 
