15
Energy =
C    -6.9273209    3.1417520    0.3042376 
C    -5.7178056    2.3300058   -0.1316763 
H    -7.1003547    3.9610352   -0.4259216 
H    -6.7736916    3.5688541    1.3170680 
H    -7.8303267    2.4976522    0.3245162 
C    -4.4269380    3.2000763   -0.1042192 
O    -5.9879235    1.8315544   -1.4298737 
H    -5.5650146    1.4671592    0.5690155 
C    -3.6606761    3.3579749   -1.4415990 
H    -3.7343617    2.7591902    0.6470097 
H    -4.6517682    4.2184309    0.2870865 
H    -3.6162238    4.4285649   -1.7339027 
H    -4.1297300    2.8110494   -2.2875473 
H    -2.6210987    2.9804665   -1.3423146 
H    -6.7357758    1.1447019   -1.4350649 
