15
Energy =
C    -6.8866018    2.7236808    0.3680634 
C    -5.4687321    2.1734271    0.1053071 
H    -7.6257515    2.4176780   -0.3982181 
H    -6.9103319    3.8331985    0.4092620 
H    -7.2563739    2.3477705    1.3450307 
C    -4.4622864    3.3181622   -0.0480993 
O    -5.4227600    1.3848596   -1.0788095 
H    -5.1690975    1.5298178    0.9729770 
C    -3.0111064    2.8126441   -0.2060851 
H    -4.5254547    3.9859392    0.8402300 
H    -4.7546648    3.9132078   -0.9435471 
H    -2.6243236    3.0713352   -1.2155890 
H    -2.9442750    1.7039338   -0.1146603 
H    -2.3464696    3.2724820    0.5562215 
H    -6.2944407    1.2506085   -1.5776124 
