15
Energy =
C    -6.8623782    3.0550891    0.2714706 
C    -5.5673300    2.2569813    0.0095573 
H    -7.5862628    3.0056611   -0.5655863 
H    -6.6665275    4.1316671    0.4606757 
H    -7.3745059    2.6485401    1.1686547 
C    -4.3431746    3.1768507    0.0571447 
O    -5.5912511    1.6220306   -1.2644000 
H    -5.4686027    1.4670826    0.7989675 
C    -3.0131140    2.3988228   -0.0569559 
H    -4.3502643    3.7535621    1.0092014 
H    -4.4312744    3.9040449   -0.7822151 
H    -2.3650670    2.5928662    0.8244038 
H    -2.4654467    2.7057666   -0.9744454 
H    -3.1786984    1.3001472   -0.1378454 
H    -6.4292033    1.7382989   -1.8218038 
