15
Energy =
C    -6.9053709    2.8219527    0.2637027 
C    -5.4927124    2.3322410    0.0100625 
H    -6.9509642    3.4597397    1.1706345 
H    -7.5789772    1.9497918    0.3945387 
H    -7.2540957    3.3902674   -0.6235184 
C    -4.5096406    3.5207603   -0.1592065 
O    -5.5547438    1.5277009   -1.1541235 
H    -5.1949638    1.7036774    0.8902785 
C    -3.7891016    3.5740774   -1.5180303 
H    -3.7426828    3.4624926    0.6450315 
H    -5.0331493    4.4924227   -0.0057961 
H    -4.5334158    3.5501005   -2.3469828 
H    -3.1083049    2.7041274   -1.6338426 
H    -3.1889502    4.5051578   -1.6048176 
H    -4.7501644    0.9155662   -1.2364676 
