15
Energy =
C    -6.8215501    2.8889690    0.3953823 
C    -5.4394312    2.2612704    0.2126273 
H    -7.1469291    2.7937666    1.4516717 
H    -7.5636652    2.3674472   -0.2457690 
H    -6.8438635    3.9633008    0.1165104 
C    -4.4131209    3.2870107   -0.2727757 
O    -5.5433773    1.2446766   -0.7685442 
H    -5.0721524    1.8355187    1.1828632 
C    -2.9895827    2.7065135   -0.2936462 
H    -4.4316959    4.1822960    0.3877128 
H    -4.7064143    3.6027931   -1.3006745 
H    -2.9617845    1.7947253   -0.9343013 
H    -2.6611142    2.4314281    0.7316607 
H    -2.2766453    3.4506749   -0.7087277 
H    -5.8020291    0.3493264   -0.3669257 
