15
Energy =
C    -6.9379218    2.8169663    0.2464671 
C    -5.4947102    2.3064927    0.2269117 
H    -7.2193979    3.2146970   -0.7495759 
H    -7.0660853    3.6024639    1.0185827 
H    -7.6253989    1.9822391    0.4966858 
C    -4.4239615    3.3852088   -0.0749174 
O    -5.3603429    1.2772617   -0.7455287 
H    -5.2842090    1.8602124    1.2332963 
C    -4.9213381    4.8137277   -0.3809115 
H    -3.8104276    3.0253526   -0.9349195 
H    -3.7226977    3.4334619    0.7870874 
H    -5.4735228    5.2394797    0.4840675 
H    -5.5736701    4.8194091   -1.2808125 
H    -4.0544002    5.4779893   -0.5883192 
H    -6.2229925    0.9607453   -1.1790059 
