15
Energy =
C    -6.9096598    2.8024417    0.2153241 
C    -5.5140469    2.1910878   -0.0297370 
H    -7.3999901    2.2817286    1.0643889 
H    -7.5872947    2.7116951   -0.6560491 
H    -6.8615434    3.8820151    0.4718171 
C    -4.4210551    3.2516900    0.1348535 
O    -5.4033303    1.6439164   -1.3391551 
H    -5.3482002    1.3693151    0.7146367 
C    -2.9993878    2.6616634    0.0037111 
H    -4.5276687    3.7391019    1.1298974 
H    -4.5807192    4.0310273   -0.6451961 
H    -2.4959184    3.0749704   -0.8969908 
H    -3.0182791    1.5545325   -0.1223879 
H    -2.3852433    2.9068994    0.8964547 
H    -6.2270675    1.6822718   -1.9277215 
