15
Energy =
C    -6.9299031    2.7675855    0.0024574 
C    -5.5047535    2.2219680    0.0937647 
H    -7.4730726    2.2731740   -0.8316308 
H    -6.9581843    3.8605345   -0.1859516 
H    -7.4831590    2.5582083    0.9413610 
C    -4.4597778    3.3177383   -0.1268187 
O    -5.3557021    1.2425425   -0.9197338 
H    -5.3641443    1.7683200    1.1098712 
C    -3.0310240    2.8116533    0.1299592 
H    -4.6676144    4.1756043    0.5508870 
H    -4.5523507    3.6733220   -1.1792721 
H    -2.9194738    2.4557170    1.1770491 
H    -2.2996266    3.6297251   -0.0452381 
H    -2.7904075    1.9743155   -0.5636664 
H    -4.8978582    0.4023638   -0.5829958 
