15
Energy =
C    -6.9064639    2.7402852    0.1431587 
C    -5.4598400    2.2858432    0.0701407 
H    -7.1562232    3.3433700   -0.7535599 
H    -7.0997909    3.3253425    1.0641771 
H    -7.5639844    1.8469049    0.1408955 
C    -4.4958469    3.4632993   -0.0890170 
O    -5.3537782    1.4710456   -1.0803719 
H    -5.2252170    1.6935280    0.9930729 
C    -4.3821157    4.3269594    1.1807795 
H    -4.8102654    4.0749465   -0.9660097 
H    -3.4909686    3.0557548   -0.3394450 
H    -5.3370144    4.8543801    1.3941213 
H    -3.5936179    5.0993796    1.0439122 
H    -4.1071567    3.7060957    2.0618485 
H    -4.5414653    0.8628702   -1.0508301 
