15
Energy =
C    -6.7674467    2.3786556   -0.7042024 
C    -5.3946143    2.1006879   -0.1105372 
H    -7.3689096    3.0235212   -0.0305522 
H    -7.3054360    1.4207468   -0.8552650 
H    -6.6629639    2.8626523   -1.6967799 
C    -4.6826676    3.3851830    0.3388404 
O    -4.6020636    1.4565696   -1.0897850 
H    -5.4907367    1.4432292    0.7928870 
C    -4.3716083    4.3616161   -0.8089198 
H    -3.7212802    3.0845104    0.8126367 
H    -5.2920560    3.8969432    1.1158488 
H    -3.7956788    5.2302436   -0.4266298 
H    -5.3034680    4.7326814   -1.2826620 
H    -3.7650595    3.8472361   -1.5872718 
H    -4.9312711    0.5200577   -1.3002163 
