15
Energy =
C    -6.7650254    2.8805258    0.5995851 
C    -5.3641086    2.3199475    0.3462677 
H    -7.5296187    2.1907326    0.1811257 
H    -6.9252386    3.8721670    0.1285074 
H    -6.9517395    2.9742817    1.6893602 
C    -4.5420517    3.2575526   -0.5439355 
O    -5.5264129    1.0789928   -0.3171291 
H    -4.8585340    2.1726406    1.3380119 
C    -3.0568386    2.8582411   -0.6032238 
H    -4.6138457    4.2992389   -0.1565864 
H    -4.9840231    3.2420354   -1.5679947 
H    -2.6087779    2.8257370    0.4142067 
H    -2.4887525    3.5986314   -1.2082530 
H    -2.9348435    1.8642595   -1.0866710 
H    -4.7007702    0.4941942   -0.2477141 
