15
Energy =
C    -6.9101966    2.6440095    0.3682681 
C    -5.4305703    2.3328305    0.1683864 
H    -7.3486407    3.0475182   -0.5678830 
H    -7.0446179    3.3853156    1.1835880 
H    -7.4506537    1.7134828    0.6433657 
C    -4.6272318    3.5948887   -0.2513008 
O    -5.3004543    1.2651493   -0.7579264 
H    -5.0406903    1.9653904    1.1530943 
C    -3.9446104    3.5602988   -1.6407350 
H    -3.8395689    3.7618971    0.5176237 
H    -5.2728242    4.5004726   -0.1928404 
H    -2.8402651    3.6000184   -1.5251314 
H    -4.2599080    4.4338930   -2.2499836 
H    -4.1706440    2.6443555   -2.2247029 
H    -5.9940597    1.2751536   -1.5000756 
