15
Energy =
C    -5.6854195    2.3094494    1.2204466 
C    -6.2480227    2.6952357   -0.1383166 
H    -4.7681299    1.6964182    1.1114623 
H    -6.4508281    1.7234142    1.7678430 
H    -5.4768758    3.2162331    1.8237301 
C    -5.3346160    3.5758346   -1.0262199 
O    -7.4597157    3.3886842    0.1008916 
H    -6.4623081    1.7362957   -0.6768900 
C    -4.0173375    4.0692758   -0.3950026 
H    -5.9261342    4.4632667   -1.3514996 
H    -5.0903544    3.0115301   -1.9528034 
H    -3.4567925    4.6926676   -1.1248181 
H    -3.3682368    3.2153855   -0.1056390 
H    -4.2252238    4.6973443    0.4990432 
H    -8.1937647    3.1336944   -0.5520132 
