15
Energy =
C    -6.8122618    2.7314510    0.0944328 
C    -5.3839631    2.2601291   -0.1389753 
H    -6.9738866    2.9812106    1.1621833 
H    -7.5132656    1.9180398   -0.1875796 
H    -7.0384731    3.6198579   -0.5295674 
C    -4.3537628    3.3727808    0.0661251 
O    -5.2819511    1.7888610   -1.4693175 
H    -5.1564737    1.4062707    0.5535768 
C    -4.1611015    3.7436668    1.5484260 
H    -4.6455788    4.2701409   -0.5243447 
H    -3.3863976    3.0142764   -0.3581002 
H    -5.0880455    4.1860014    1.9739632 
H    -3.3498308    4.4980973    1.6487724 
H    -3.8772481    2.8521350    2.1507217 
H    -5.5182881    2.4928908   -2.1628304 
