15
Energy =
C    -6.9140443    2.5670208   -0.1711532 
C    -5.5979348    2.7436378   -0.9504944 
H    -6.9058870    2.9606066    0.8581041 
H    -7.1704011    1.4894770   -0.1090393 
H    -7.7517946    3.0623939   -0.7048132 
C    -4.4085759    3.4597589   -0.2513958 
O    -5.8855143    3.4185757   -2.1622834 
H    -5.2415934    1.7174529   -1.2326771 
C    -4.6154109    3.9529539    1.1922108 
H    -4.0921017    4.3231722   -0.8819082 
H    -3.5330599    2.7717503   -0.2613947 
H    -5.4355753    4.7031291    1.2392132 
H    -3.6886779    4.4452620    1.5609729 
H    -4.8373250    3.1024725    1.8737308 
H    -6.2254171    4.3640724   -2.0078897 
