15
Energy =
C    -6.8989692    2.8491170    0.0450676 
C    -5.5086524    2.2429405    0.0086292 
H    -7.0941094    3.3955637   -0.8992318 
H    -7.0152717    3.5303668    0.9129516 
H    -7.6460747    2.0324209    0.1127651 
C    -4.4063431    3.3142267    0.0248363 
O    -5.4158111    1.4680857   -1.1718468 
H    -5.4061448    1.5809864    0.9063904 
C    -4.4207588    4.2423456   -1.2028681 
H    -3.4246740    2.7925004    0.0668010 
H    -4.4927820    3.9206139    0.9540445 
H    -3.4958731    4.8568595   -1.2297803 
H    -5.2929959    4.9285480   -1.1698212 
H    -4.4775510    3.6432740   -2.1404737 
H    -4.5969983    0.8689862   -1.1729608 
