15
Energy =
C    -6.9908907    2.9308372    0.1392030 
C    -5.6250136    2.2784986    0.0134489 
H    -7.7689931    2.1423106    0.1645325 
H    -7.1887497    3.5606141   -0.7529806 
H    -7.0583232    3.5288199    1.0713225 
C    -4.3961617    3.2264307   -0.0030850 
O    -5.6220441    1.5312912   -1.1905104 
H    -5.4893614    1.5839399    0.8821745 
C    -4.6206457    4.7634560   -0.0087195 
H    -3.7817919    2.9528494   -0.8935276 
H    -3.7513538    2.9713999    0.8671288 
H    -4.1278715    5.2257301    0.8741688 
H    -5.6770659    5.0874708    0.0028566 
H    -4.1630233    5.2094555   -0.9190005 
H    -5.9463414    0.5780224   -1.0623889 
