15
Energy =
C    -7.0009280    2.9048289   -0.2147172 
C    -5.6044096    2.3549072    0.0753565 
H    -6.9910394    3.5172311   -1.1410321 
H    -7.3520796    3.5290462    0.6338667 
H    -7.7145172    2.0647200   -0.3486920 
C    -4.5907449    3.5039663    0.2588939 
O    -5.1688746    1.5470704   -1.0111133 
H    -5.6771119    1.7068190    0.9860476 
C    -3.8009625    3.4378279    1.5907714 
H    -5.0882749    4.4966685    0.1754661 
H    -3.8777051    3.4700172   -0.5989028 
H    -4.0940856    2.5855273    2.2407682 
H    -3.9443079    4.3721491    2.1770754 
H    -2.7127694    3.3286645    1.3854205 
H    -5.8159761    1.4578765   -1.7892177 
