15
Energy =
C    -6.8825722    3.2410400    0.3323521 
C    -5.7230378    2.3677842   -0.1200187 
H    -7.0169067    4.0750470   -0.3891497 
H    -6.6961004    3.6504131    1.3470405 
H    -7.8189232    2.6466682    0.3561455 
C    -4.3898194    3.1625077   -0.0987038 
O    -6.0157293    1.9085709   -1.4295829 
H    -5.6133695    1.4874969    0.5660414 
C    -3.6807817    3.2410785   -1.4605282 
H    -3.7010589    2.6818742    0.6306420 
H    -4.5476385    4.2018002    0.2684464 
H    -3.5201371    2.2185336   -1.8686396 
H    -2.7046365    3.7613850   -1.3666872 
H    -4.3223228    3.7902599   -2.1841853 
H    -6.8159151    1.2844439   -1.4528847 
