15
Energy =
C    -7.0268974    3.1875272   -0.0329175 
C    -5.7151503    2.4438471    0.1762220 
H    -7.0298619    3.7099487   -1.0119531 
H    -7.1833865    3.9276353    0.7793663 
H    -7.8641886    2.4581723   -0.0231011 
C    -4.4939246    3.3839672    0.0780494 
O    -5.6153724    1.4323561   -0.8106452 
H    -5.7662594    1.9398691    1.1762637 
C    -3.5546600    3.3243588    1.3087037 
H    -4.8194543    4.4374982   -0.0811952 
H    -3.9146796    3.1180224   -0.8367251 
H    -3.8999921    2.6292380    2.1039391 
H    -3.4484770    4.3319910    1.7682765 
H    -2.5403843    2.9844167    1.0016314 
H    -5.7172061    1.7808978   -1.7594396 
