15
Energy =
C    -6.9885470    2.9002462   -0.0631574 
C    -5.5951194    2.2832811   -0.0338792 
H    -7.0978923    3.5824404   -0.9293389 
H    -7.1966877    3.4465542    0.8790967 
H    -7.7379263    2.0887765   -0.1737981 
C    -4.4060697    3.2729925    0.0580160 
O    -5.4457443    1.4823235   -1.1913298 
H    -5.5523796    1.6002558    0.8552588 
C    -4.7570213    4.7736551    0.1061358 
H    -3.7183347    3.0872963   -0.7996585 
H    -3.8101752    3.0206754    0.9638514 
H    -5.3933448    5.0074611    0.9871840 
H    -5.2803507    5.0886040   -0.8223881 
H    -3.8271512    5.3777529    0.1907406 
H    -5.5404402    2.0158181   -2.0511414 
