15
Energy =
C    -6.8177923    3.0392301    0.1526934 
C    -5.5160873    2.2814061   -0.0410000 
H    -6.9248413    3.8054405   -0.6426987 
H    -6.8613399    3.5248303    1.1480492 
H    -7.6659983    2.3317946    0.0524344 
C    -4.3093843    3.2220225    0.0104407 
O    -5.5790679    1.7041926   -1.3304494 
H    -5.4404240    1.4822410    0.7436004 
C    -3.9820843    3.7237914    1.4360582 
H    -4.4864037    4.0740295   -0.6865530 
H    -3.4276270    2.6808673   -0.4009115 
H    -3.9685707    4.8359171    1.4587331 
H    -2.9777462    3.3658124    1.7540126 
H    -4.7166223    3.3795251    2.1967835 
H    -4.8882767    0.9722714   -1.4631974 
