15
Energy =
C    -6.5042075    2.3748855    0.7087275 
C    -5.4496580    2.3321300   -0.3861784 
H    -7.0601044    1.4164007    0.7150906 
H    -7.2349996    3.1810359    0.4960517 
H    -6.0382147    2.5232708    1.7037490 
C    -4.5892467    3.6101156   -0.5456156 
O    -6.1208986    2.0976225   -1.6111331 
H    -4.7486794    1.4843748   -0.1733038 
C    -4.9467841    4.8106690    0.3545296 
H    -4.6508845    3.9315703   -1.6123611 
H    -3.5226257    3.3465216   -0.3719643 
H    -5.9857694    5.1530179    0.1554890 
H    -4.2637882    5.6607258    0.1387478 
H    -4.8381745    4.5516338    1.4293840 
H    -6.2173237    1.1095205   -1.8224378 
